File generated by build_tank.py (SapViewer)

TABLE:  "PROGRAM CONTROL"
   ProgramName=SAP2000   Version=24.0.0   CurrUnits="Kip, ft, F"   MergeTol=0.001

TABLE:  "MATERIAL PROPERTIES 01 - GENERAL"
   Material=A36   Type=Steel   SymType=Isotropic   TempDepend=No   Color=Cyan

TABLE:  "MATERIAL PROPERTIES 02 - BASIC MECHANICAL PROPERTIES"
   Material=A36   UnitWeight=0.49   UnitMass=0.0152296886   E1=4176000   G12=1606153.85   U12=0.3   A1=6.5e-06

TABLE:  "AREA SECTION PROPERTIES"
   Section=WALL_T1   Material=A36   MatAngle=0   AreaType=Shell   Type=Shell-Thin   Thickness=0.0208333   BendThick=0.0208333   Color=Gray8Dark
   Section=WALL_T2   Material=A36   MatAngle=0   AreaType=Shell   Type=Shell-Thin   Thickness=0.015625   BendThick=0.015625   Color=Gray8Dark

TABLE:  "JOINT COORDINATES"
   Joint=1   CoordSys=GLOBAL   CoordType=Cartesian   XorR=30   Y=0   Z=0
   Joint=2   CoordSys=GLOBAL   CoordType=Cartesian   XorR=29.5442326   Y=5.20944533   Z=0
   Joint=3   CoordSys=GLOBAL   CoordType=Cartesian   XorR=28.1907786   Y=10.2606043   Z=0
   Joint=4   CoordSys=GLOBAL   CoordType=Cartesian   XorR=25.9807621   Y=15   Z=0
   Joint=5   CoordSys=GLOBAL   CoordType=Cartesian   XorR=22.9813333   Y=19.2836283   Z=0
   Joint=6   CoordSys=GLOBAL   CoordType=Cartesian   XorR=19.2836283   Y=22.9813333   Z=0
   Joint=7   CoordSys=GLOBAL   CoordType=Cartesian   XorR=15   Y=25.9807621   Z=0
   Joint=8   CoordSys=GLOBAL   CoordType=Cartesian   XorR=10.2606043   Y=28.1907786   Z=0
   Joint=9   CoordSys=GLOBAL   CoordType=Cartesian   XorR=5.20944533   Y=29.5442326   Z=0
   Joint=10   CoordSys=GLOBAL   CoordType=Cartesian   XorR=1.8369702e-15   Y=30   Z=0
   Joint=11   CoordSys=GLOBAL   CoordType=Cartesian   XorR=-5.20944533   Y=29.5442326   Z=0
   Joint=12   CoordSys=GLOBAL   CoordType=Cartesian   XorR=-10.2606043   Y=28.1907786   Z=0
   Joint=13   CoordSys=GLOBAL   CoordType=Cartesian   XorR=-15   Y=25.9807621   Z=0
   Joint=14   CoordSys=GLOBAL   CoordType=Cartesian   XorR=-19.2836283   Y=22.9813333   Z=0
   Joint=15   CoordSys=GLOBAL   CoordType=Cartesian   XorR=-22.9813333   Y=19.2836283   Z=0
   Joint=16   CoordSys=GLOBAL   CoordType=Cartesian   XorR=-25.9807621   Y=15   Z=0
   Joint=17   CoordSys=GLOBAL   CoordType=Cartesian   XorR=-28.1907786   Y=10.2606043   Z=0
   Joint=18   CoordSys=GLOBAL   CoordType=Cartesian   XorR=-29.5442326   Y=5.20944533   Z=0
   Joint=19   CoordSys=GLOBAL   CoordType=Cartesian   XorR=-30   Y=3.6739404e-15   Z=0
   Joint=20   CoordSys=GLOBAL   CoordType=Cartesian   XorR=-29.5442326   Y=-5.20944533   Z=0
# ... 736 like lines cut

TABLE:  "CONNECTIVITY - AREA"
   Area=1   NumJoints=4   Joint1=1   Joint2=2   Joint3=38   Joint4=37
   Area=2   NumJoints=4   Joint1=2   Joint2=3   Joint3=39   Joint4=38
   Area=3   NumJoints=4   Joint1=3   Joint2=4   Joint3=40   Joint4=39
   Area=4   NumJoints=4   Joint1=4   Joint2=5   Joint3=41   Joint4=40
   Area=5   NumJoints=4   Joint1=5   Joint2=6   Joint3=42   Joint4=41
   Area=6   NumJoints=4   Joint1=6   Joint2=7   Joint3=43   Joint4=42
   Area=7   NumJoints=4   Joint1=7   Joint2=8   Joint3=44   Joint4=43
   Area=8   NumJoints=4   Joint1=8   Joint2=9   Joint3=45   Joint4=44
   Area=9   NumJoints=4   Joint1=9   Joint2=10   Joint3=46   Joint4=45
   Area=10   NumJoints=4   Joint1=10   Joint2=11   Joint3=47   Joint4=46
   Area=11   NumJoints=4   Joint1=11   Joint2=12   Joint3=48   Joint4=47
   Area=12   NumJoints=4   Joint1=12   Joint2=13   Joint3=49   Joint4=48
   Area=13   NumJoints=4   Joint1=13   Joint2=14   Joint3=50   Joint4=49
   Area=14   NumJoints=4   Joint1=14   Joint2=15   Joint3=51   Joint4=50
   Area=15   NumJoints=4   Joint1=15   Joint2=16   Joint3=52   Joint4=51
   Area=16   NumJoints=4   Joint1=16   Joint2=17   Joint3=53   Joint4=52
   Area=17   NumJoints=4   Joint1=17   Joint2=18   Joint3=54   Joint4=53
   Area=18   NumJoints=4   Joint1=18   Joint2=19   Joint3=55   Joint4=54
   Area=19   NumJoints=4   Joint1=19   Joint2=20   Joint3=56   Joint4=55
   Area=20   NumJoints=4   Joint1=20   Joint2=21   Joint3=57   Joint4=56
# ... 700 like lines cut

TABLE:  "AREA SECTION ASSIGNMENTS"
   Area=1   Section=WALL_T1
   Area=2   Section=WALL_T1
   Area=3   Section=WALL_T1
   Area=4   Section=WALL_T1
   Area=5   Section=WALL_T1
   Area=6   Section=WALL_T1
   Area=7   Section=WALL_T1
   Area=8   Section=WALL_T1
   Area=9   Section=WALL_T1
   Area=10   Section=WALL_T1
   Area=11   Section=WALL_T1
   Area=12   Section=WALL_T1
   Area=13   Section=WALL_T1
   Area=14   Section=WALL_T1
   Area=15   Section=WALL_T1
   Area=16   Section=WALL_T1
   Area=17   Section=WALL_T1
   Area=18   Section=WALL_T1
   Area=19   Section=WALL_T1
   Area=20   Section=WALL_T1
# ... 700 like lines cut

TABLE:  "GROUPS 1 - DEFINITIONS"
   GroupName=WALL   Selection=Yes   SectionCut=Yes   Steel=Yes   Concrete=Yes   Aluminum=Yes   ColdFormed=Yes   Stage=Yes   Bridge=Yes   AutoSeismic=No   AutoWind=No   SelDesSteel=No   SelDesAlum=No   SelDesCold=No   MassWeight=Yes   Color=Green
   GroupName=COURSE_01   Selection=Yes   SectionCut=Yes   Steel=Yes   Concrete=Yes   Aluminum=Yes   ColdFormed=Yes   Stage=Yes   Bridge=Yes   AutoSeismic=No   AutoWind=No   SelDesSteel=No   SelDesAlum=No   SelDesCold=No   MassWeight=Yes   Color=Green
   GroupName=COURSE_02   Selection=Yes   SectionCut=Yes   Steel=Yes   Concrete=Yes   Aluminum=Yes   ColdFormed=Yes   Stage=Yes   Bridge=Yes   AutoSeismic=No   AutoWind=No   SelDesSteel=No   SelDesAlum=No   SelDesCold=No   MassWeight=Yes   Color=Green
   GroupName=BASE_RING   Selection=Yes   SectionCut=Yes   Steel=Yes   Concrete=Yes   Aluminum=Yes   ColdFormed=Yes   Stage=Yes   Bridge=Yes   AutoSeismic=No   AutoWind=No   SelDesSteel=No   SelDesAlum=No   SelDesCold=No   MassWeight=Yes   Color=Green
   GroupName=TOP_RING   Selection=Yes   SectionCut=Yes   Steel=Yes   Concrete=Yes   Aluminum=Yes   ColdFormed=Yes   Stage=Yes   Bridge=Yes   AutoSeismic=No   AutoWind=No   SelDesSteel=No   SelDesAlum=No   SelDesCold=No   MassWeight=Yes   Color=Green

TABLE:  "GROUPS 2 - ASSIGNMENTS"
   GroupName=WALL   ObjectType=Area   ObjectLabel=1
   GroupName=WALL   ObjectType=Area   ObjectLabel=2
   GroupName=WALL   ObjectType=Area   ObjectLabel=3
   GroupName=WALL   ObjectType=Area   ObjectLabel=4
   GroupName=WALL   ObjectType=Area   ObjectLabel=5
   GroupName=WALL   ObjectType=Area   ObjectLabel=6
   GroupName=WALL   ObjectType=Area   ObjectLabel=7
   GroupName=WALL   ObjectType=Area   ObjectLabel=8
   GroupName=WALL   ObjectType=Area   ObjectLabel=9
   GroupName=WALL   ObjectType=Area   ObjectLabel=10
   GroupName=WALL   ObjectType=Area   ObjectLabel=11
   GroupName=WALL   ObjectType=Area   ObjectLabel=12
   GroupName=WALL   ObjectType=Area   ObjectLabel=13
   GroupName=WALL   ObjectType=Area   ObjectLabel=14
   GroupName=WALL   ObjectType=Area   ObjectLabel=15
   GroupName=WALL   ObjectType=Area   ObjectLabel=16
   GroupName=WALL   ObjectType=Area   ObjectLabel=17
   GroupName=WALL   ObjectType=Area   ObjectLabel=18
   GroupName=WALL   ObjectType=Area   ObjectLabel=19
   GroupName=WALL   ObjectType=Area   ObjectLabel=20
# ... 700 like lines cut
   GroupName=COURSE_01   ObjectType=Area   ObjectLabel=1
   GroupName=COURSE_01   ObjectType=Area   ObjectLabel=2
   GroupName=COURSE_01   ObjectType=Area   ObjectLabel=3
   GroupName=COURSE_01   ObjectType=Area   ObjectLabel=4
   GroupName=COURSE_01   ObjectType=Area   ObjectLabel=5
   GroupName=COURSE_01   ObjectType=Area   ObjectLabel=6
   GroupName=COURSE_01   ObjectType=Area   ObjectLabel=7
   GroupName=COURSE_01   ObjectType=Area   ObjectLabel=8
   GroupName=COURSE_01   ObjectType=Area   ObjectLabel=9
   GroupName=COURSE_01   ObjectType=Area   ObjectLabel=10
   GroupName=COURSE_01   ObjectType=Area   ObjectLabel=11
   GroupName=COURSE_01   ObjectType=Area   ObjectLabel=12
   GroupName=COURSE_01   ObjectType=Area   ObjectLabel=13
   GroupName=COURSE_01   ObjectType=Area   ObjectLabel=14
   GroupName=COURSE_01   ObjectType=Area   ObjectLabel=15
   GroupName=COURSE_01   ObjectType=Area   ObjectLabel=16
   GroupName=COURSE_01   ObjectType=Area   ObjectLabel=17
   GroupName=COURSE_01   ObjectType=Area   ObjectLabel=18
   GroupName=COURSE_01   ObjectType=Area   ObjectLabel=19
   GroupName=COURSE_01   ObjectType=Area   ObjectLabel=20
# ... 700 like lines cut
   GroupName=BASE_RING   ObjectType=Joint   ObjectLabel=1
   GroupName=BASE_RING   ObjectType=Joint   ObjectLabel=2
   GroupName=BASE_RING   ObjectType=Joint   ObjectLabel=3
   GroupName=BASE_RING   ObjectType=Joint   ObjectLabel=4
   GroupName=BASE_RING   ObjectType=Joint   ObjectLabel=5
   GroupName=BASE_RING   ObjectType=Joint   ObjectLabel=6
   GroupName=BASE_RING   ObjectType=Joint   ObjectLabel=7
   GroupName=BASE_RING   ObjectType=Joint   ObjectLabel=8
   GroupName=BASE_RING   ObjectType=Joint   ObjectLabel=9
   GroupName=BASE_RING   ObjectType=Joint   ObjectLabel=10
   GroupName=BASE_RING   ObjectType=Joint   ObjectLabel=11
   GroupName=BASE_RING   ObjectType=Joint   ObjectLabel=12
   GroupName=BASE_RING   ObjectType=Joint   ObjectLabel=13
   GroupName=BASE_RING   ObjectType=Joint   ObjectLabel=14
   GroupName=BASE_RING   ObjectType=Joint   ObjectLabel=15
   GroupName=BASE_RING   ObjectType=Joint   ObjectLabel=16
   GroupName=BASE_RING   ObjectType=Joint   ObjectLabel=17
   GroupName=BASE_RING   ObjectType=Joint   ObjectLabel=18
   GroupName=BASE_RING   ObjectType=Joint   ObjectLabel=19
   GroupName=BASE_RING   ObjectType=Joint   ObjectLabel=20
# ... 16 like lines cut
   GroupName=TOP_RING   ObjectType=Joint   ObjectLabel=721
   GroupName=TOP_RING   ObjectType=Joint   ObjectLabel=722
   GroupName=TOP_RING   ObjectType=Joint   ObjectLabel=723
   GroupName=TOP_RING   ObjectType=Joint   ObjectLabel=724
   GroupName=TOP_RING   ObjectType=Joint   ObjectLabel=725
   GroupName=TOP_RING   ObjectType=Joint   ObjectLabel=726
   GroupName=TOP_RING   ObjectType=Joint   ObjectLabel=727
   GroupName=TOP_RING   ObjectType=Joint   ObjectLabel=728
   GroupName=TOP_RING   ObjectType=Joint   ObjectLabel=729
   GroupName=TOP_RING   ObjectType=Joint   ObjectLabel=730
   GroupName=TOP_RING   ObjectType=Joint   ObjectLabel=731
   GroupName=TOP_RING   ObjectType=Joint   ObjectLabel=732
   GroupName=TOP_RING   ObjectType=Joint   ObjectLabel=733
   GroupName=TOP_RING   ObjectType=Joint   ObjectLabel=734
   GroupName=TOP_RING   ObjectType=Joint   ObjectLabel=735
   GroupName=TOP_RING   ObjectType=Joint   ObjectLabel=736
   GroupName=TOP_RING   ObjectType=Joint   ObjectLabel=737
   GroupName=TOP_RING   ObjectType=Joint   ObjectLabel=738
   GroupName=TOP_RING   ObjectType=Joint   ObjectLabel=739
   GroupName=TOP_RING   ObjectType=Joint   ObjectLabel=740
# ... 16 like lines cut

TABLE:  "JOINT RESTRAINT ASSIGNMENTS"
   Joint=1   U1=Yes   U2=No   U3=Yes   R1=No   R2=No   R3=No
   Joint=2   U1=Yes   U2=No   U3=Yes   R1=No   R2=No   R3=No
   Joint=3   U1=Yes   U2=No   U3=Yes   R1=No   R2=No   R3=No
   Joint=4   U1=Yes   U2=No   U3=Yes   R1=No   R2=No   R3=No
   Joint=5   U1=Yes   U2=No   U3=Yes   R1=No   R2=No   R3=No
   Joint=6   U1=Yes   U2=No   U3=Yes   R1=No   R2=No   R3=No
   Joint=7   U1=Yes   U2=No   U3=Yes   R1=No   R2=No   R3=No
   Joint=8   U1=Yes   U2=No   U3=Yes   R1=No   R2=No   R3=No
   Joint=9   U1=Yes   U2=No   U3=Yes   R1=No   R2=No   R3=No
   Joint=10   U1=Yes   U2=No   U3=Yes   R1=No   R2=No   R3=No
   Joint=11   U1=Yes   U2=No   U3=Yes   R1=No   R2=No   R3=No
   Joint=12   U1=Yes   U2=No   U3=Yes   R1=No   R2=No   R3=No
   Joint=13   U1=Yes   U2=No   U3=Yes   R1=No   R2=No   R3=No
   Joint=14   U1=Yes   U2=No   U3=Yes   R1=No   R2=No   R3=No
   Joint=15   U1=Yes   U2=No   U3=Yes   R1=No   R2=No   R3=No
   Joint=16   U1=Yes   U2=No   U3=Yes   R1=No   R2=No   R3=No
   Joint=17   U1=Yes   U2=No   U3=Yes   R1=No   R2=No   R3=No
   Joint=18   U1=Yes   U2=No   U3=Yes   R1=No   R2=No   R3=No
   Joint=19   U1=Yes   U2=No   U3=Yes   R1=No   R2=No   R3=No
   Joint=20   U1=Yes   U2=No   U3=Yes   R1=No   R2=No   R3=No
# ... 16 like lines cut

TABLE:  "JOINT LOCAL AXES ASSIGNMENTS 1 - TYPICAL"
   Joint=1   AngleA=-90   AngleB=0   AngleC=0
   Joint=2   AngleA=-80   AngleB=0   AngleC=0
   Joint=3   AngleA=-70   AngleB=0   AngleC=0
   Joint=4   AngleA=-60   AngleB=0   AngleC=0
   Joint=5   AngleA=-50   AngleB=0   AngleC=0
   Joint=6   AngleA=-40   AngleB=0   AngleC=0
   Joint=7   AngleA=-30   AngleB=0   AngleC=0
   Joint=8   AngleA=-20   AngleB=0   AngleC=0
   Joint=9   AngleA=-10   AngleB=0   AngleC=0
   Joint=10   AngleA=0   AngleB=0   AngleC=0
   Joint=11   AngleA=10   AngleB=0   AngleC=0
   Joint=12   AngleA=20   AngleB=0   AngleC=0
   Joint=13   AngleA=30   AngleB=0   AngleC=0
   Joint=14   AngleA=40   AngleB=0   AngleC=0
   Joint=15   AngleA=50   AngleB=0   AngleC=0
   Joint=16   AngleA=60   AngleB=0   AngleC=0
   Joint=17   AngleA=70   AngleB=0   AngleC=0
   Joint=18   AngleA=80   AngleB=0   AngleC=0
   Joint=19   AngleA=90   AngleB=0   AngleC=0
   Joint=20   AngleA=100   AngleB=0   AngleC=0
# ... 16 like lines cut

TABLE:  "LOAD PATTERN DEFINITIONS"
   LoadPat=DEAD   DesignType=Dead   SelfWtMult=1
   LoadPat=HYDRO   DesignType=Live   SelfWtMult=0

TABLE:  "JOINT PATTERN DEFINITIONS"
   Pattern=HYDRO

TABLE:  "JOINT PATTERN ASSIGNMENTS"
   Joint=1   Pattern=HYDRO   Value=2.496
   Joint=2   Pattern=HYDRO   Value=2.496
   Joint=3   Pattern=HYDRO   Value=2.496
   Joint=4   Pattern=HYDRO   Value=2.496
   Joint=5   Pattern=HYDRO   Value=2.496
   Joint=6   Pattern=HYDRO   Value=2.496
   Joint=7   Pattern=HYDRO   Value=2.496
   Joint=8   Pattern=HYDRO   Value=2.496
   Joint=9   Pattern=HYDRO   Value=2.496
   Joint=10   Pattern=HYDRO   Value=2.496
   Joint=11   Pattern=HYDRO   Value=2.496
   Joint=12   Pattern=HYDRO   Value=2.496
   Joint=13   Pattern=HYDRO   Value=2.496
   Joint=14   Pattern=HYDRO   Value=2.496
   Joint=15   Pattern=HYDRO   Value=2.496
   Joint=16   Pattern=HYDRO   Value=2.496
   Joint=17   Pattern=HYDRO   Value=2.496
   Joint=18   Pattern=HYDRO   Value=2.496
   Joint=19   Pattern=HYDRO   Value=2.496
   Joint=20   Pattern=HYDRO   Value=2.496
# ... 736 like lines cut

TABLE:  "AREA LOADS - SURFACE PRESSURE"
   Area=1   LoadPat=HYDRO   Face=Bottom   Pressure=2.4336
   Area=2   LoadPat=HYDRO   Face=Bottom   Pressure=2.4336
   Area=3   LoadPat=HYDRO   Face=Bottom   Pressure=2.4336
   Area=4   LoadPat=HYDRO   Face=Bottom   Pressure=2.4336
   Area=5   LoadPat=HYDRO   Face=Bottom   Pressure=2.4336
   Area=6   LoadPat=HYDRO   Face=Bottom   Pressure=2.4336
   Area=7   LoadPat=HYDRO   Face=Bottom   Pressure=2.4336
   Area=8   LoadPat=HYDRO   Face=Bottom   Pressure=2.4336
   Area=9   LoadPat=HYDRO   Face=Bottom   Pressure=2.4336
   Area=10   LoadPat=HYDRO   Face=Bottom   Pressure=2.4336
   Area=11   LoadPat=HYDRO   Face=Bottom   Pressure=2.4336
   Area=12   LoadPat=HYDRO   Face=Bottom   Pressure=2.4336
   Area=13   LoadPat=HYDRO   Face=Bottom   Pressure=2.4336
   Area=14   LoadPat=HYDRO   Face=Bottom   Pressure=2.4336
   Area=15   LoadPat=HYDRO   Face=Bottom   Pressure=2.4336
   Area=16   LoadPat=HYDRO   Face=Bottom   Pressure=2.4336
   Area=17   LoadPat=HYDRO   Face=Bottom   Pressure=2.4336
   Area=18   LoadPat=HYDRO   Face=Bottom   Pressure=2.4336
   Area=19   LoadPat=HYDRO   Face=Bottom   Pressure=2.4336
   Area=20   LoadPat=HYDRO   Face=Bottom   Pressure=2.4336
# ... 700 like lines cut

TABLE:  "LOAD CASE DEFINITIONS"
   Case=DEAD   Type=LinStatic   InitialCond=Zero
   Case=HYDRO   Type=LinStatic   InitialCond=Zero

TABLE:  "CASE - STATIC 1 - LOAD ASSIGNMENTS"
   Case=DEAD   LoadType="Load pattern"   LoadName=DEAD   LoadSF=1
   Case=HYDRO   LoadType="Load pattern"   LoadName=HYDRO   LoadSF=1

END TABLE DATA
