File generated by build_tank.py (SapViewer)

TABLE:  "PROGRAM CONTROL"
   ProgramName=SAP2000   Version=24.0.0   CurrUnits="Kip, ft, F"   MergeTol=0.001

TABLE:  "MATERIAL PROPERTIES 01 - GENERAL"
   Material=A36   Type=Steel   SymType=Isotropic   TempDepend=No   Color=Cyan
   Material=CONC   Type=Concrete   SymType=Isotropic   TempDepend=No   Color=Gray4

TABLE:  "MATERIAL PROPERTIES 02 - BASIC MECHANICAL PROPERTIES"
   Material=A36   UnitWeight=0.49   UnitMass=0.0152296886   E1=4176000   G12=1606153.85   U12=0.3   A1=6.5e-06
   Material=CONC   UnitWeight=0.15   UnitMass=0.00466214956   E1=449570.675   G12=187321.115   U12=0.2   A1=5.5e-06

TABLE:  "AREA SECTION PROPERTIES"
   Section=WALL_T1   Material=A36   MatAngle=0   AreaType=Shell   Type=Shell-Thin   Thickness=0.0208333   BendThick=0.0208333   Color=Gray8Dark
   Section=WALL_T2   Material=A36   MatAngle=0   AreaType=Shell   Type=Shell-Thin   Thickness=0.015625   BendThick=0.015625   Color=Gray8Dark
   Section=BASEPLATE   Material=A36   MatAngle=0   AreaType=Shell   Type=Shell-Thin   Thickness=0.0208333   BendThick=0.0208333   Color=Gray8Dark
   Section=ROOF   Material=A36   MatAngle=0   AreaType=Shell   Type=Shell-Thin   Thickness=0.0208333   BendThick=0.0208333   Color=Gray8Dark

TABLE:  "FRAME SECTION PROPERTIES 01 - GENERAL"
   SectionName=ROOF_RING   Material=A36   Shape=General   t3=0.28125   t2=0.25   Area=0.0224609375   TorsConst=2.25702922e-05   I33=0.000126386034   I22=0.000138825265   I23=7.31426737e-05   AS2=0.0068359375   AS3=0.015625   S33=0.000609968008   S22=0.000877042015   Z33=0.000609968008   Z22=0.000877042015   R33=0.0750128392   R22=0.0786176966   Color=Yellow
   SectionName=RINGWALL   Material=CONC   Shape=Rectangular   t3=3   t2=1   Color=Yellow

TABLE:  "JOINT COORDINATES"
   Joint=1   CoordSys=GLOBAL   CoordType=Cartesian   XorR=30   Y=0   Z=0
   Joint=2   CoordSys=GLOBAL   CoordType=Cartesian   XorR=29.5442326   Y=5.20944533   Z=0
   Joint=3   CoordSys=GLOBAL   CoordType=Cartesian   XorR=28.1907786   Y=10.2606043   Z=0
   Joint=4   CoordSys=GLOBAL   CoordType=Cartesian   XorR=25.9807621   Y=15   Z=0
   Joint=5   CoordSys=GLOBAL   CoordType=Cartesian   XorR=22.9813333   Y=19.2836283   Z=0
   Joint=6   CoordSys=GLOBAL   CoordType=Cartesian   XorR=19.2836283   Y=22.9813333   Z=0
   Joint=7   CoordSys=GLOBAL   CoordType=Cartesian   XorR=15   Y=25.9807621   Z=0
   Joint=8   CoordSys=GLOBAL   CoordType=Cartesian   XorR=10.2606043   Y=28.1907786   Z=0
   Joint=9   CoordSys=GLOBAL   CoordType=Cartesian   XorR=5.20944533   Y=29.5442326   Z=0
   Joint=10   CoordSys=GLOBAL   CoordType=Cartesian   XorR=1.8369702e-15   Y=30   Z=0
   Joint=11   CoordSys=GLOBAL   CoordType=Cartesian   XorR=-5.20944533   Y=29.5442326   Z=0
   Joint=12   CoordSys=GLOBAL   CoordType=Cartesian   XorR=-10.2606043   Y=28.1907786   Z=0
   Joint=13   CoordSys=GLOBAL   CoordType=Cartesian   XorR=-15   Y=25.9807621   Z=0
   Joint=14   CoordSys=GLOBAL   CoordType=Cartesian   XorR=-19.2836283   Y=22.9813333   Z=0
   Joint=15   CoordSys=GLOBAL   CoordType=Cartesian   XorR=-22.9813333   Y=19.2836283   Z=0
   Joint=16   CoordSys=GLOBAL   CoordType=Cartesian   XorR=-25.9807621   Y=15   Z=0
   Joint=17   CoordSys=GLOBAL   CoordType=Cartesian   XorR=-28.1907786   Y=10.2606043   Z=0
   Joint=18   CoordSys=GLOBAL   CoordType=Cartesian   XorR=-29.5442326   Y=5.20944533   Z=0
   Joint=19   CoordSys=GLOBAL   CoordType=Cartesian   XorR=-30   Y=3.6739404e-15   Z=0
   Joint=20   CoordSys=GLOBAL   CoordType=Cartesian   XorR=-29.5442326   Y=-5.20944533   Z=0
# ... 1351 like lines cut

TABLE:  "CONNECTIVITY - AREA"
   Area=1   NumJoints=4   Joint1=1   Joint2=2   Joint3=38   Joint4=37
   Area=2   NumJoints=4   Joint1=2   Joint2=3   Joint3=39   Joint4=38
   Area=3   NumJoints=4   Joint1=3   Joint2=4   Joint3=40   Joint4=39
   Area=4   NumJoints=4   Joint1=4   Joint2=5   Joint3=41   Joint4=40
   Area=5   NumJoints=4   Joint1=5   Joint2=6   Joint3=42   Joint4=41
   Area=6   NumJoints=4   Joint1=6   Joint2=7   Joint3=43   Joint4=42
   Area=7   NumJoints=4   Joint1=7   Joint2=8   Joint3=44   Joint4=43
   Area=8   NumJoints=4   Joint1=8   Joint2=9   Joint3=45   Joint4=44
   Area=9   NumJoints=4   Joint1=9   Joint2=10   Joint3=46   Joint4=45
   Area=10   NumJoints=4   Joint1=10   Joint2=11   Joint3=47   Joint4=46
   Area=11   NumJoints=4   Joint1=11   Joint2=12   Joint3=48   Joint4=47
   Area=12   NumJoints=4   Joint1=12   Joint2=13   Joint3=49   Joint4=48
   Area=13   NumJoints=4   Joint1=13   Joint2=14   Joint3=50   Joint4=49
   Area=14   NumJoints=4   Joint1=14   Joint2=15   Joint3=51   Joint4=50
   Area=15   NumJoints=4   Joint1=15   Joint2=16   Joint3=52   Joint4=51
   Area=16   NumJoints=4   Joint1=16   Joint2=17   Joint3=53   Joint4=52
   Area=17   NumJoints=4   Joint1=17   Joint2=18   Joint3=54   Joint4=53
   Area=18   NumJoints=4   Joint1=18   Joint2=19   Joint3=55   Joint4=54
   Area=19   NumJoints=4   Joint1=19   Joint2=20   Joint3=56   Joint4=55
   Area=20   NumJoints=4   Joint1=20   Joint2=21   Joint3=57   Joint4=56
# ... 880 like lines cut
   Area=901   NumJoints=3   Joint1=757   Joint2=758   Joint3=759
   Area=902   NumJoints=3   Joint1=757   Joint2=759   Joint3=760
   Area=903   NumJoints=3   Joint1=757   Joint2=760   Joint3=761
   Area=904   NumJoints=3   Joint1=757   Joint2=761   Joint3=762
   Area=905   NumJoints=3   Joint1=757   Joint2=762   Joint3=763
   Area=906   NumJoints=3   Joint1=757   Joint2=763   Joint3=764
   Area=907   NumJoints=3   Joint1=757   Joint2=764   Joint3=765
   Area=908   NumJoints=3   Joint1=757   Joint2=765   Joint3=766
   Area=909   NumJoints=3   Joint1=757   Joint2=766   Joint3=767
   Area=910   NumJoints=3   Joint1=757   Joint2=767   Joint3=768
   Area=911   NumJoints=3   Joint1=757   Joint2=768   Joint3=769
   Area=912   NumJoints=3   Joint1=757   Joint2=769   Joint3=770
   Area=913   NumJoints=3   Joint1=757   Joint2=770   Joint3=771
   Area=914   NumJoints=3   Joint1=757   Joint2=771   Joint3=772
   Area=915   NumJoints=3   Joint1=757   Joint2=772   Joint3=773
   Area=916   NumJoints=3   Joint1=757   Joint2=773   Joint3=774
   Area=917   NumJoints=3   Joint1=757   Joint2=774   Joint3=775
   Area=918   NumJoints=3   Joint1=757   Joint2=775   Joint3=776
   Area=919   NumJoints=3   Joint1=757   Joint2=776   Joint3=777
   Area=920   NumJoints=3   Joint1=757   Joint2=777   Joint3=778
# ... 16 like lines cut
   Area=937   NumJoints=4   Joint1=939   Joint2=975   Joint3=976   Joint4=940
   Area=938   NumJoints=4   Joint1=940   Joint2=976   Joint3=977   Joint4=941
   Area=939   NumJoints=4   Joint1=941   Joint2=977   Joint3=978   Joint4=942
   Area=940   NumJoints=4   Joint1=942   Joint2=978   Joint3=979   Joint4=943
   Area=941   NumJoints=4   Joint1=943   Joint2=979   Joint3=980   Joint4=944
   Area=942   NumJoints=4   Joint1=944   Joint2=980   Joint3=981   Joint4=945
   Area=943   NumJoints=4   Joint1=945   Joint2=981   Joint3=982   Joint4=946
   Area=944   NumJoints=4   Joint1=946   Joint2=982   Joint3=983   Joint4=947
   Area=945   NumJoints=4   Joint1=947   Joint2=983   Joint3=984   Joint4=948
   Area=946   NumJoints=4   Joint1=948   Joint2=984   Joint3=985   Joint4=949
   Area=947   NumJoints=4   Joint1=949   Joint2=985   Joint3=986   Joint4=950
   Area=948   NumJoints=4   Joint1=950   Joint2=986   Joint3=987   Joint4=951
   Area=949   NumJoints=4   Joint1=951   Joint2=987   Joint3=988   Joint4=952
   Area=950   NumJoints=4   Joint1=952   Joint2=988   Joint3=989   Joint4=953
   Area=951   NumJoints=4   Joint1=953   Joint2=989   Joint3=990   Joint4=954
   Area=952   NumJoints=4   Joint1=954   Joint2=990   Joint3=991   Joint4=955
   Area=953   NumJoints=4   Joint1=955   Joint2=991   Joint3=992   Joint4=956
   Area=954   NumJoints=4   Joint1=956   Joint2=992   Joint3=993   Joint4=957
   Area=955   NumJoints=4   Joint1=957   Joint2=993   Joint3=994   Joint4=958
   Area=956   NumJoints=4   Joint1=958   Joint2=994   Joint3=995   Joint4=959
# ... 160 like lines cut
   Area=1117   NumJoints=3   Joint1=938   Joint2=939   Joint3=940
   Area=1118   NumJoints=3   Joint1=938   Joint2=940   Joint3=941
   Area=1119   NumJoints=3   Joint1=938   Joint2=941   Joint3=942
   Area=1120   NumJoints=3   Joint1=938   Joint2=942   Joint3=943
   Area=1121   NumJoints=3   Joint1=938   Joint2=943   Joint3=944
   Area=1122   NumJoints=3   Joint1=938   Joint2=944   Joint3=945
   Area=1123   NumJoints=3   Joint1=938   Joint2=945   Joint3=946
   Area=1124   NumJoints=3   Joint1=938   Joint2=946   Joint3=947
   Area=1125   NumJoints=3   Joint1=938   Joint2=947   Joint3=948
   Area=1126   NumJoints=3   Joint1=938   Joint2=948   Joint3=949
   Area=1127   NumJoints=3   Joint1=938   Joint2=949   Joint3=950
   Area=1128   NumJoints=3   Joint1=938   Joint2=950   Joint3=951
   Area=1129   NumJoints=3   Joint1=938   Joint2=951   Joint3=952
   Area=1130   NumJoints=3   Joint1=938   Joint2=952   Joint3=953
   Area=1131   NumJoints=3   Joint1=938   Joint2=953   Joint3=954
   Area=1132   NumJoints=3   Joint1=938   Joint2=954   Joint3=955
   Area=1133   NumJoints=3   Joint1=938   Joint2=955   Joint3=956
   Area=1134   NumJoints=3   Joint1=938   Joint2=956   Joint3=957
   Area=1135   NumJoints=3   Joint1=938   Joint2=957   Joint3=958
   Area=1136   NumJoints=3   Joint1=938   Joint2=958   Joint3=959
# ... 16 like lines cut

TABLE:  "AREA SECTION ASSIGNMENTS"
   Area=1   Section=WALL_T1
   Area=2   Section=WALL_T1
   Area=3   Section=WALL_T1
   Area=4   Section=WALL_T1
   Area=5   Section=WALL_T1
   Area=6   Section=WALL_T1
   Area=7   Section=WALL_T1
   Area=8   Section=WALL_T1
   Area=9   Section=WALL_T1
   Area=10   Section=WALL_T1
   Area=11   Section=WALL_T1
   Area=12   Section=WALL_T1
   Area=13   Section=WALL_T1
   Area=14   Section=WALL_T1
   Area=15   Section=WALL_T1
   Area=16   Section=WALL_T1
   Area=17   Section=WALL_T1
   Area=18   Section=WALL_T1
   Area=19   Section=WALL_T1
   Area=20   Section=WALL_T1
# ... 700 like lines cut
   Area=721   Section=BASEPLATE
   Area=722   Section=BASEPLATE
   Area=723   Section=BASEPLATE
   Area=724   Section=BASEPLATE
   Area=725   Section=BASEPLATE
   Area=726   Section=BASEPLATE
   Area=727   Section=BASEPLATE
   Area=728   Section=BASEPLATE
   Area=729   Section=BASEPLATE
   Area=730   Section=BASEPLATE
   Area=731   Section=BASEPLATE
   Area=732   Section=BASEPLATE
   Area=733   Section=BASEPLATE
   Area=734   Section=BASEPLATE
   Area=735   Section=BASEPLATE
   Area=736   Section=BASEPLATE
   Area=737   Section=BASEPLATE
   Area=738   Section=BASEPLATE
   Area=739   Section=BASEPLATE
   Area=740   Section=BASEPLATE
# ... 196 like lines cut
   Area=937   Section=ROOF
   Area=938   Section=ROOF
   Area=939   Section=ROOF
   Area=940   Section=ROOF
   Area=941   Section=ROOF
   Area=942   Section=ROOF
   Area=943   Section=ROOF
   Area=944   Section=ROOF
   Area=945   Section=ROOF
   Area=946   Section=ROOF
   Area=947   Section=ROOF
   Area=948   Section=ROOF
   Area=949   Section=ROOF
   Area=950   Section=ROOF
   Area=951   Section=ROOF
   Area=952   Section=ROOF
   Area=953   Section=ROOF
   Area=954   Section=ROOF
   Area=955   Section=ROOF
   Area=956   Section=ROOF
# ... 196 like lines cut

TABLE:  "AREA LOCAL AXES ASSIGNMENTS 1 - TYPICAL"
   Area=1   Angle=90   AdvanceAxes=No
   Area=2   Angle=90   AdvanceAxes=No
   Area=3   Angle=90   AdvanceAxes=No
   Area=4   Angle=90   AdvanceAxes=No
   Area=5   Angle=90   AdvanceAxes=No
   Area=6   Angle=90   AdvanceAxes=No
   Area=7   Angle=90   AdvanceAxes=No
   Area=8   Angle=90   AdvanceAxes=No
   Area=9   Angle=90   AdvanceAxes=No
   Area=10   Angle=90   AdvanceAxes=No
   Area=11   Angle=90   AdvanceAxes=No
   Area=12   Angle=90   AdvanceAxes=No
   Area=13   Angle=90   AdvanceAxes=No
   Area=14   Angle=90   AdvanceAxes=No
   Area=15   Angle=90   AdvanceAxes=No
   Area=16   Angle=90   AdvanceAxes=No
   Area=17   Angle=90   AdvanceAxes=No
   Area=18   Angle=90   AdvanceAxes=No
   Area=19   Angle=90   AdvanceAxes=No
   Area=20   Angle=90   AdvanceAxes=No
# ... 1132 like lines cut

TABLE:  "CONNECTIVITY - FRAME"
   Frame=1   JointI=721   JointJ=722   IsCurved=No
   Frame=2   JointI=722   JointJ=723   IsCurved=No
   Frame=3   JointI=723   JointJ=724   IsCurved=No
   Frame=4   JointI=724   JointJ=725   IsCurved=No
   Frame=5   JointI=725   JointJ=726   IsCurved=No
   Frame=6   JointI=726   JointJ=727   IsCurved=No
   Frame=7   JointI=727   JointJ=728   IsCurved=No
   Frame=8   JointI=728   JointJ=729   IsCurved=No
   Frame=9   JointI=729   JointJ=730   IsCurved=No
   Frame=10   JointI=730   JointJ=731   IsCurved=No
   Frame=11   JointI=731   JointJ=732   IsCurved=No
   Frame=12   JointI=732   JointJ=733   IsCurved=No
   Frame=13   JointI=733   JointJ=734   IsCurved=No
   Frame=14   JointI=734   JointJ=735   IsCurved=No
   Frame=15   JointI=735   JointJ=736   IsCurved=No
   Frame=16   JointI=736   JointJ=737   IsCurved=No
   Frame=17   JointI=737   JointJ=738   IsCurved=No
   Frame=18   JointI=738   JointJ=739   IsCurved=No
   Frame=19   JointI=739   JointJ=740   IsCurved=No
   Frame=20   JointI=740   JointJ=741   IsCurved=No
# ... 52 like lines cut

TABLE:  "FRAME SECTION ASSIGNMENTS"
   Frame=1   SectionType=General   AutoSelect=N.A.   AnalSect=ROOF_RING   DesignSect=ROOF_RING   MatProp=Default
   Frame=2   SectionType=General   AutoSelect=N.A.   AnalSect=ROOF_RING   DesignSect=ROOF_RING   MatProp=Default
   Frame=3   SectionType=General   AutoSelect=N.A.   AnalSect=ROOF_RING   DesignSect=ROOF_RING   MatProp=Default
   Frame=4   SectionType=General   AutoSelect=N.A.   AnalSect=ROOF_RING   DesignSect=ROOF_RING   MatProp=Default
   Frame=5   SectionType=General   AutoSelect=N.A.   AnalSect=ROOF_RING   DesignSect=ROOF_RING   MatProp=Default
   Frame=6   SectionType=General   AutoSelect=N.A.   AnalSect=ROOF_RING   DesignSect=ROOF_RING   MatProp=Default
   Frame=7   SectionType=General   AutoSelect=N.A.   AnalSect=ROOF_RING   DesignSect=ROOF_RING   MatProp=Default
   Frame=8   SectionType=General   AutoSelect=N.A.   AnalSect=ROOF_RING   DesignSect=ROOF_RING   MatProp=Default
   Frame=9   SectionType=General   AutoSelect=N.A.   AnalSect=ROOF_RING   DesignSect=ROOF_RING   MatProp=Default
   Frame=10   SectionType=General   AutoSelect=N.A.   AnalSect=ROOF_RING   DesignSect=ROOF_RING   MatProp=Default
   Frame=11   SectionType=General   AutoSelect=N.A.   AnalSect=ROOF_RING   DesignSect=ROOF_RING   MatProp=Default
   Frame=12   SectionType=General   AutoSelect=N.A.   AnalSect=ROOF_RING   DesignSect=ROOF_RING   MatProp=Default
   Frame=13   SectionType=General   AutoSelect=N.A.   AnalSect=ROOF_RING   DesignSect=ROOF_RING   MatProp=Default
   Frame=14   SectionType=General   AutoSelect=N.A.   AnalSect=ROOF_RING   DesignSect=ROOF_RING   MatProp=Default
   Frame=15   SectionType=General   AutoSelect=N.A.   AnalSect=ROOF_RING   DesignSect=ROOF_RING   MatProp=Default
   Frame=16   SectionType=General   AutoSelect=N.A.   AnalSect=ROOF_RING   DesignSect=ROOF_RING   MatProp=Default
   Frame=17   SectionType=General   AutoSelect=N.A.   AnalSect=ROOF_RING   DesignSect=ROOF_RING   MatProp=Default
   Frame=18   SectionType=General   AutoSelect=N.A.   AnalSect=ROOF_RING   DesignSect=ROOF_RING   MatProp=Default
   Frame=19   SectionType=General   AutoSelect=N.A.   AnalSect=ROOF_RING   DesignSect=ROOF_RING   MatProp=Default
   Frame=20   SectionType=General   AutoSelect=N.A.   AnalSect=ROOF_RING   DesignSect=ROOF_RING   MatProp=Default
# ... 16 like lines cut
   Frame=37   SectionType=Rectangular   AutoSelect=N.A.   AnalSect=RINGWALL   DesignSect=RINGWALL   MatProp=Default
   Frame=38   SectionType=Rectangular   AutoSelect=N.A.   AnalSect=RINGWALL   DesignSect=RINGWALL   MatProp=Default
   Frame=39   SectionType=Rectangular   AutoSelect=N.A.   AnalSect=RINGWALL   DesignSect=RINGWALL   MatProp=Default
   Frame=40   SectionType=Rectangular   AutoSelect=N.A.   AnalSect=RINGWALL   DesignSect=RINGWALL   MatProp=Default
   Frame=41   SectionType=Rectangular   AutoSelect=N.A.   AnalSect=RINGWALL   DesignSect=RINGWALL   MatProp=Default
   Frame=42   SectionType=Rectangular   AutoSelect=N.A.   AnalSect=RINGWALL   DesignSect=RINGWALL   MatProp=Default
   Frame=43   SectionType=Rectangular   AutoSelect=N.A.   AnalSect=RINGWALL   DesignSect=RINGWALL   MatProp=Default
   Frame=44   SectionType=Rectangular   AutoSelect=N.A.   AnalSect=RINGWALL   DesignSect=RINGWALL   MatProp=Default
   Frame=45   SectionType=Rectangular   AutoSelect=N.A.   AnalSect=RINGWALL   DesignSect=RINGWALL   MatProp=Default
   Frame=46   SectionType=Rectangular   AutoSelect=N.A.   AnalSect=RINGWALL   DesignSect=RINGWALL   MatProp=Default
   Frame=47   SectionType=Rectangular   AutoSelect=N.A.   AnalSect=RINGWALL   DesignSect=RINGWALL   MatProp=Default
   Frame=48   SectionType=Rectangular   AutoSelect=N.A.   AnalSect=RINGWALL   DesignSect=RINGWALL   MatProp=Default
   Frame=49   SectionType=Rectangular   AutoSelect=N.A.   AnalSect=RINGWALL   DesignSect=RINGWALL   MatProp=Default
   Frame=50   SectionType=Rectangular   AutoSelect=N.A.   AnalSect=RINGWALL   DesignSect=RINGWALL   MatProp=Default
   Frame=51   SectionType=Rectangular   AutoSelect=N.A.   AnalSect=RINGWALL   DesignSect=RINGWALL   MatProp=Default
   Frame=52   SectionType=Rectangular   AutoSelect=N.A.   AnalSect=RINGWALL   DesignSect=RINGWALL   MatProp=Default
   Frame=53   SectionType=Rectangular   AutoSelect=N.A.   AnalSect=RINGWALL   DesignSect=RINGWALL   MatProp=Default
   Frame=54   SectionType=Rectangular   AutoSelect=N.A.   AnalSect=RINGWALL   DesignSect=RINGWALL   MatProp=Default
   Frame=55   SectionType=Rectangular   AutoSelect=N.A.   AnalSect=RINGWALL   DesignSect=RINGWALL   MatProp=Default
   Frame=56   SectionType=Rectangular   AutoSelect=N.A.   AnalSect=RINGWALL   DesignSect=RINGWALL   MatProp=Default
# ... 16 like lines cut

TABLE:  "FRAME INSERTION POINT ASSIGNMENTS"
   Frame=37   CardinalPt="8 (top center)"   Mirror2=No   Mirror3=No   Transform=No   CoordSys=Local   Offset1I=0   Offset2I=0   Offset3I=0   Offset1J=0   Offset2J=0   Offset3J=0
   Frame=38   CardinalPt="8 (top center)"   Mirror2=No   Mirror3=No   Transform=No   CoordSys=Local   Offset1I=0   Offset2I=0   Offset3I=0   Offset1J=0   Offset2J=0   Offset3J=0
   Frame=39   CardinalPt="8 (top center)"   Mirror2=No   Mirror3=No   Transform=No   CoordSys=Local   Offset1I=0   Offset2I=0   Offset3I=0   Offset1J=0   Offset2J=0   Offset3J=0
   Frame=40   CardinalPt="8 (top center)"   Mirror2=No   Mirror3=No   Transform=No   CoordSys=Local   Offset1I=0   Offset2I=0   Offset3I=0   Offset1J=0   Offset2J=0   Offset3J=0
   Frame=41   CardinalPt="8 (top center)"   Mirror2=No   Mirror3=No   Transform=No   CoordSys=Local   Offset1I=0   Offset2I=0   Offset3I=0   Offset1J=0   Offset2J=0   Offset3J=0
   Frame=42   CardinalPt="8 (top center)"   Mirror2=No   Mirror3=No   Transform=No   CoordSys=Local   Offset1I=0   Offset2I=0   Offset3I=0   Offset1J=0   Offset2J=0   Offset3J=0
   Frame=43   CardinalPt="8 (top center)"   Mirror2=No   Mirror3=No   Transform=No   CoordSys=Local   Offset1I=0   Offset2I=0   Offset3I=0   Offset1J=0   Offset2J=0   Offset3J=0
   Frame=44   CardinalPt="8 (top center)"   Mirror2=No   Mirror3=No   Transform=No   CoordSys=Local   Offset1I=0   Offset2I=0   Offset3I=0   Offset1J=0   Offset2J=0   Offset3J=0
   Frame=45   CardinalPt="8 (top center)"   Mirror2=No   Mirror3=No   Transform=No   CoordSys=Local   Offset1I=0   Offset2I=0   Offset3I=0   Offset1J=0   Offset2J=0   Offset3J=0
   Frame=46   CardinalPt="8 (top center)"   Mirror2=No   Mirror3=No   Transform=No   CoordSys=Local   Offset1I=0   Offset2I=0   Offset3I=0   Offset1J=0   Offset2J=0   Offset3J=0
   Frame=47   CardinalPt="8 (top center)"   Mirror2=No   Mirror3=No   Transform=No   CoordSys=Local   Offset1I=0   Offset2I=0   Offset3I=0   Offset1J=0   Offset2J=0   Offset3J=0
   Frame=48   CardinalPt="8 (top center)"   Mirror2=No   Mirror3=No   Transform=No   CoordSys=Local   Offset1I=0   Offset2I=0   Offset3I=0   Offset1J=0   Offset2J=0   Offset3J=0
   Frame=49   CardinalPt="8 (top center)"   Mirror2=No   Mirror3=No   Transform=No   CoordSys=Local   Offset1I=0   Offset2I=0   Offset3I=0   Offset1J=0   Offset2J=0   Offset3J=0
   Frame=50   CardinalPt="8 (top center)"   Mirror2=No   Mirror3=No   Transform=No   CoordSys=Local   Offset1I=0   Offset2I=0   Offset3I=0   Offset1J=0   Offset2J=0   Offset3J=0
   Frame=51   CardinalPt="8 (top center)"   Mirror2=No   Mirror3=No   Transform=No   CoordSys=Local   Offset1I=0   Offset2I=0   Offset3I=0   Offset1J=0   Offset2J=0   Offset3J=0
   Frame=52   CardinalPt="8 (top center)"   Mirror2=No   Mirror3=No   Transform=No   CoordSys=Local   Offset1I=0   Offset2I=0   Offset3I=0   Offset1J=0   Offset2J=0   Offset3J=0
   Frame=53   CardinalPt="8 (top center)"   Mirror2=No   Mirror3=No   Transform=No   CoordSys=Local   Offset1I=0   Offset2I=0   Offset3I=0   Offset1J=0   Offset2J=0   Offset3J=0
   Frame=54   CardinalPt="8 (top center)"   Mirror2=No   Mirror3=No   Transform=No   CoordSys=Local   Offset1I=0   Offset2I=0   Offset3I=0   Offset1J=0   Offset2J=0   Offset3J=0
   Frame=55   CardinalPt="8 (top center)"   Mirror2=No   Mirror3=No   Transform=No   CoordSys=Local   Offset1I=0   Offset2I=0   Offset3I=0   Offset1J=0   Offset2J=0   Offset3J=0
   Frame=56   CardinalPt="8 (top center)"   Mirror2=No   Mirror3=No   Transform=No   CoordSys=Local   Offset1I=0   Offset2I=0   Offset3I=0   Offset1J=0   Offset2J=0   Offset3J=0
# ... 16 like lines cut

TABLE:  "LINK PROPERTY DEFINITIONS 01 - GENERAL"
   Link=GAP_R00   LinkType=Gap   Mass=0   Weight=0   RotInert1=0   RotInert2=0   RotInert3=0   DefLength=1   DefArea=1   PDM2I=0   PDM2J=0   PDM3I=0   PDM3J=0   Color=Magenta
   Link=GAP_R01   LinkType=Gap   Mass=0   Weight=0   RotInert1=0   RotInert2=0   RotInert3=0   DefLength=1   DefArea=1   PDM2I=0   PDM2J=0   PDM3I=0   PDM3J=0   Color=Magenta
   Link=GAP_R02   LinkType=Gap   Mass=0   Weight=0   RotInert1=0   RotInert2=0   RotInert3=0   DefLength=1   DefArea=1   PDM2I=0   PDM2J=0   PDM3I=0   PDM3J=0   Color=Magenta
   Link=GAP_R03   LinkType=Gap   Mass=0   Weight=0   RotInert1=0   RotInert2=0   RotInert3=0   DefLength=1   DefArea=1   PDM2I=0   PDM2J=0   PDM3I=0   PDM3J=0   Color=Magenta
   Link=GAP_R04   LinkType=Gap   Mass=0   Weight=0   RotInert1=0   RotInert2=0   RotInert3=0   DefLength=1   DefArea=1   PDM2I=0   PDM2J=0   PDM3I=0   PDM3J=0   Color=Magenta
   Link=GAP_R05   LinkType=Gap   Mass=0   Weight=0   RotInert1=0   RotInert2=0   RotInert3=0   DefLength=1   DefArea=1   PDM2I=0   PDM2J=0   PDM3I=0   PDM3J=0   Color=Magenta
   Link=GAP_CONTACT   LinkType=Gap   Mass=0   Weight=0   RotInert1=0   RotInert2=0   RotInert3=0   DefLength=1   DefArea=1   PDM2I=0   PDM2J=0   PDM3I=0   PDM3J=0   Color=Magenta
   Link=GAP_SOIL   LinkType=Gap   Mass=0   Weight=0   RotInert1=0   RotInert2=0   RotInert3=0   DefLength=1   DefArea=1   PDM2I=0   PDM2J=0   PDM3I=0   PDM3J=0   Color=Magenta

TABLE:  "LINK PROPERTY DEFINITIONS 05 - GAP"
   Link=GAP_R00   DOF=U1   Fixed=No   NonLinear=Yes   TransKE=1963.49541   TransCE=0   TransK=1963.49541   Open=0
   Link=GAP_R01   DOF=U1   Fixed=No   NonLinear=Yes   TransKE=436.332313   TransCE=0   TransK=436.332313   Open=0
   Link=GAP_R02   DOF=U1   Fixed=No   NonLinear=Yes   TransKE=872.664626   TransCE=0   TransK=872.664626   Open=0
   Link=GAP_R03   DOF=U1   Fixed=No   NonLinear=Yes   TransKE=1308.99694   TransCE=0   TransK=1308.99694   Open=0
   Link=GAP_R04   DOF=U1   Fixed=No   NonLinear=Yes   TransKE=1745.32925   TransCE=0   TransK=1745.32925   Open=0
   Link=GAP_R05   DOF=U1   Fixed=No   NonLinear=Yes   TransKE=2181.66156   TransCE=0   TransK=2181.66156   Open=0
   Link=GAP_CONTACT   DOF=U1   Fixed=No   NonLinear=Yes   TransKE=784648.85   TransCE=0   TransK=784648.85   Open=0
   Link=GAP_SOIL   DOF=U1   Fixed=No   NonLinear=Yes   TransKE=523.598776   TransCE=0   TransK=523.598776   Open=0

TABLE:  "CONNECTIVITY - LINK"
   Link=1   JointI=1119   JointJ=757
   Link=2   JointI=1120   JointJ=758
   Link=3   JointI=1121   JointJ=759
   Link=4   JointI=1122   JointJ=760
   Link=5   JointI=1123   JointJ=761
   Link=6   JointI=1124   JointJ=762
   Link=7   JointI=1125   JointJ=763
   Link=8   JointI=1126   JointJ=764
   Link=9   JointI=1127   JointJ=765
   Link=10   JointI=1128   JointJ=766
   Link=11   JointI=1129   JointJ=767
   Link=12   JointI=1130   JointJ=768
   Link=13   JointI=1131   JointJ=769
   Link=14   JointI=1132   JointJ=770
   Link=15   JointI=1133   JointJ=771
   Link=16   JointI=1134   JointJ=772
   Link=17   JointI=1135   JointJ=773
   Link=18   JointI=1136   JointJ=774
   Link=19   JointI=1137   JointJ=775
   Link=20   JointI=1138   JointJ=776
# ... 233 like lines cut

TABLE:  "LINK PROPERTY ASSIGNMENTS"
   Link=1   LinkProp=GAP_R00   LinkFDProp=None
   Link=2   LinkProp=GAP_R01   LinkFDProp=None
   Link=3   LinkProp=GAP_R01   LinkFDProp=None
   Link=4   LinkProp=GAP_R01   LinkFDProp=None
   Link=5   LinkProp=GAP_R01   LinkFDProp=None
   Link=6   LinkProp=GAP_R01   LinkFDProp=None
   Link=7   LinkProp=GAP_R01   LinkFDProp=None
   Link=8   LinkProp=GAP_R01   LinkFDProp=None
   Link=9   LinkProp=GAP_R01   LinkFDProp=None
   Link=10   LinkProp=GAP_R01   LinkFDProp=None
   Link=11   LinkProp=GAP_R01   LinkFDProp=None
   Link=12   LinkProp=GAP_R01   LinkFDProp=None
   Link=13   LinkProp=GAP_R01   LinkFDProp=None
   Link=14   LinkProp=GAP_R01   LinkFDProp=None
   Link=15   LinkProp=GAP_R01   LinkFDProp=None
   Link=16   LinkProp=GAP_R01   LinkFDProp=None
   Link=17   LinkProp=GAP_R01   LinkFDProp=None
   Link=18   LinkProp=GAP_R01   LinkFDProp=None
   Link=19   LinkProp=GAP_R01   LinkFDProp=None
   Link=20   LinkProp=GAP_R01   LinkFDProp=None
# ... 161 like lines cut
   Link=182   LinkProp=GAP_CONTACT   LinkFDProp=None
   Link=183   LinkProp=GAP_CONTACT   LinkFDProp=None
   Link=184   LinkProp=GAP_CONTACT   LinkFDProp=None
   Link=185   LinkProp=GAP_CONTACT   LinkFDProp=None
   Link=186   LinkProp=GAP_CONTACT   LinkFDProp=None
   Link=187   LinkProp=GAP_CONTACT   LinkFDProp=None
   Link=188   LinkProp=GAP_CONTACT   LinkFDProp=None
   Link=189   LinkProp=GAP_CONTACT   LinkFDProp=None
   Link=190   LinkProp=GAP_CONTACT   LinkFDProp=None
   Link=191   LinkProp=GAP_CONTACT   LinkFDProp=None
   Link=192   LinkProp=GAP_CONTACT   LinkFDProp=None
   Link=193   LinkProp=GAP_CONTACT   LinkFDProp=None
   Link=194   LinkProp=GAP_CONTACT   LinkFDProp=None
   Link=195   LinkProp=GAP_CONTACT   LinkFDProp=None
   Link=196   LinkProp=GAP_CONTACT   LinkFDProp=None
   Link=197   LinkProp=GAP_CONTACT   LinkFDProp=None
   Link=198   LinkProp=GAP_CONTACT   LinkFDProp=None
   Link=199   LinkProp=GAP_CONTACT   LinkFDProp=None
   Link=200   LinkProp=GAP_CONTACT   LinkFDProp=None
   Link=201   LinkProp=GAP_CONTACT   LinkFDProp=None
# ... 16 like lines cut
   Link=218   LinkProp=GAP_SOIL   LinkFDProp=None
   Link=219   LinkProp=GAP_SOIL   LinkFDProp=None
   Link=220   LinkProp=GAP_SOIL   LinkFDProp=None
   Link=221   LinkProp=GAP_SOIL   LinkFDProp=None
   Link=222   LinkProp=GAP_SOIL   LinkFDProp=None
   Link=223   LinkProp=GAP_SOIL   LinkFDProp=None
   Link=224   LinkProp=GAP_SOIL   LinkFDProp=None
   Link=225   LinkProp=GAP_SOIL   LinkFDProp=None
   Link=226   LinkProp=GAP_SOIL   LinkFDProp=None
   Link=227   LinkProp=GAP_SOIL   LinkFDProp=None
   Link=228   LinkProp=GAP_SOIL   LinkFDProp=None
   Link=229   LinkProp=GAP_SOIL   LinkFDProp=None
   Link=230   LinkProp=GAP_SOIL   LinkFDProp=None
   Link=231   LinkProp=GAP_SOIL   LinkFDProp=None
   Link=232   LinkProp=GAP_SOIL   LinkFDProp=None
   Link=233   LinkProp=GAP_SOIL   LinkFDProp=None
   Link=234   LinkProp=GAP_SOIL   LinkFDProp=None
   Link=235   LinkProp=GAP_SOIL   LinkFDProp=None
   Link=236   LinkProp=GAP_SOIL   LinkFDProp=None
   Link=237   LinkProp=GAP_SOIL   LinkFDProp=None
# ... 16 like lines cut

TABLE:  "GROUPS 1 - DEFINITIONS"
   GroupName=WALL   Selection=Yes   SectionCut=Yes   Steel=Yes   Concrete=Yes   Aluminum=Yes   ColdFormed=Yes   Stage=Yes   Bridge=Yes   AutoSeismic=No   AutoWind=No   SelDesSteel=No   SelDesAlum=No   SelDesCold=No   MassWeight=Yes   Color=Green
   GroupName=COURSE_01   Selection=Yes   SectionCut=Yes   Steel=Yes   Concrete=Yes   Aluminum=Yes   ColdFormed=Yes   Stage=Yes   Bridge=Yes   AutoSeismic=No   AutoWind=No   SelDesSteel=No   SelDesAlum=No   SelDesCold=No   MassWeight=Yes   Color=Green
   GroupName=COURSE_02   Selection=Yes   SectionCut=Yes   Steel=Yes   Concrete=Yes   Aluminum=Yes   ColdFormed=Yes   Stage=Yes   Bridge=Yes   AutoSeismic=No   AutoWind=No   SelDesSteel=No   SelDesAlum=No   SelDesCold=No   MassWeight=Yes   Color=Green
   GroupName=BASE_RING   Selection=Yes   SectionCut=Yes   Steel=Yes   Concrete=Yes   Aluminum=Yes   ColdFormed=Yes   Stage=Yes   Bridge=Yes   AutoSeismic=No   AutoWind=No   SelDesSteel=No   SelDesAlum=No   SelDesCold=No   MassWeight=Yes   Color=Green
   GroupName=TOP_RING   Selection=Yes   SectionCut=Yes   Steel=Yes   Concrete=Yes   Aluminum=Yes   ColdFormed=Yes   Stage=Yes   Bridge=Yes   AutoSeismic=No   AutoWind=No   SelDesSteel=No   SelDesAlum=No   SelDesCold=No   MassWeight=Yes   Color=Green
   GroupName=BASEPLATE   Selection=Yes   SectionCut=Yes   Steel=Yes   Concrete=Yes   Aluminum=Yes   ColdFormed=Yes   Stage=Yes   Bridge=Yes   AutoSeismic=No   AutoWind=No   SelDesSteel=No   SelDesAlum=No   SelDesCold=No   MassWeight=Yes   Color=Green
   GroupName=ROOF   Selection=Yes   SectionCut=Yes   Steel=Yes   Concrete=Yes   Aluminum=Yes   ColdFormed=Yes   Stage=Yes   Bridge=Yes   AutoSeismic=No   AutoWind=No   SelDesSteel=No   SelDesAlum=No   SelDesCold=No   MassWeight=Yes   Color=Green
   GroupName=ROOF_RING   Selection=Yes   SectionCut=Yes   Steel=Yes   Concrete=Yes   Aluminum=Yes   ColdFormed=Yes   Stage=Yes   Bridge=Yes   AutoSeismic=No   AutoWind=No   SelDesSteel=No   SelDesAlum=No   SelDesCold=No   MassWeight=Yes   Color=Green
   GroupName=GROUND   Selection=Yes   SectionCut=Yes   Steel=Yes   Concrete=Yes   Aluminum=Yes   ColdFormed=Yes   Stage=Yes   Bridge=Yes   AutoSeismic=No   AutoWind=No   SelDesSteel=No   SelDesAlum=No   SelDesCold=No   MassWeight=Yes   Color=Green
   GroupName=RINGWALL   Selection=Yes   SectionCut=Yes   Steel=Yes   Concrete=Yes   Aluminum=Yes   ColdFormed=Yes   Stage=Yes   Bridge=Yes   AutoSeismic=No   AutoWind=No   SelDesSteel=No   SelDesAlum=No   SelDesCold=No   MassWeight=Yes   Color=Green
   GroupName=RINGWALL_TOP   Selection=Yes   SectionCut=Yes   Steel=Yes   Concrete=Yes   Aluminum=Yes   ColdFormed=Yes   Stage=Yes   Bridge=Yes   AutoSeismic=No   AutoWind=No   SelDesSteel=No   SelDesAlum=No   SelDesCold=No   MassWeight=Yes   Color=Green
   GroupName=RINGWALL_GROUND   Selection=Yes   SectionCut=Yes   Steel=Yes   Concrete=Yes   Aluminum=Yes   ColdFormed=Yes   Stage=Yes   Bridge=Yes   AutoSeismic=No   AutoWind=No   SelDesSteel=No   SelDesAlum=No   SelDesCold=No   MassWeight=Yes   Color=Green
   GroupName=DENT_01   Selection=Yes   SectionCut=Yes   Steel=Yes   Concrete=Yes   Aluminum=Yes   ColdFormed=Yes   Stage=Yes   Bridge=Yes   AutoSeismic=No   AutoWind=No   SelDesSteel=No   SelDesAlum=No   SelDesCold=No   MassWeight=Yes   Color=Green

TABLE:  "GROUPS 2 - ASSIGNMENTS"
   GroupName=WALL   ObjectType=Area   ObjectLabel=1
   GroupName=WALL   ObjectType=Area   ObjectLabel=2
   GroupName=WALL   ObjectType=Area   ObjectLabel=3
   GroupName=WALL   ObjectType=Area   ObjectLabel=4
   GroupName=WALL   ObjectType=Area   ObjectLabel=5
   GroupName=WALL   ObjectType=Area   ObjectLabel=6
   GroupName=WALL   ObjectType=Area   ObjectLabel=7
   GroupName=WALL   ObjectType=Area   ObjectLabel=8
   GroupName=WALL   ObjectType=Area   ObjectLabel=9
   GroupName=WALL   ObjectType=Area   ObjectLabel=10
   GroupName=WALL   ObjectType=Area   ObjectLabel=11
   GroupName=WALL   ObjectType=Area   ObjectLabel=12
   GroupName=WALL   ObjectType=Area   ObjectLabel=13
   GroupName=WALL   ObjectType=Area   ObjectLabel=14
   GroupName=WALL   ObjectType=Area   ObjectLabel=15
   GroupName=WALL   ObjectType=Area   ObjectLabel=16
   GroupName=WALL   ObjectType=Area   ObjectLabel=17
   GroupName=WALL   ObjectType=Area   ObjectLabel=18
   GroupName=WALL   ObjectType=Area   ObjectLabel=19
   GroupName=WALL   ObjectType=Area   ObjectLabel=20
# ... 700 like lines cut
   GroupName=COURSE_01   ObjectType=Area   ObjectLabel=1
   GroupName=COURSE_01   ObjectType=Area   ObjectLabel=2
   GroupName=COURSE_01   ObjectType=Area   ObjectLabel=3
   GroupName=COURSE_01   ObjectType=Area   ObjectLabel=4
   GroupName=COURSE_01   ObjectType=Area   ObjectLabel=5
   GroupName=COURSE_01   ObjectType=Area   ObjectLabel=6
   GroupName=COURSE_01   ObjectType=Area   ObjectLabel=7
   GroupName=COURSE_01   ObjectType=Area   ObjectLabel=8
   GroupName=COURSE_01   ObjectType=Area   ObjectLabel=9
   GroupName=COURSE_01   ObjectType=Area   ObjectLabel=10
   GroupName=COURSE_01   ObjectType=Area   ObjectLabel=11
   GroupName=COURSE_01   ObjectType=Area   ObjectLabel=12
   GroupName=COURSE_01   ObjectType=Area   ObjectLabel=13
   GroupName=COURSE_01   ObjectType=Area   ObjectLabel=14
   GroupName=COURSE_01   ObjectType=Area   ObjectLabel=15
   GroupName=COURSE_01   ObjectType=Area   ObjectLabel=16
   GroupName=COURSE_01   ObjectType=Area   ObjectLabel=17
   GroupName=COURSE_01   ObjectType=Area   ObjectLabel=18
   GroupName=COURSE_01   ObjectType=Area   ObjectLabel=19
   GroupName=COURSE_01   ObjectType=Area   ObjectLabel=20
# ... 700 like lines cut
   GroupName=BASE_RING   ObjectType=Joint   ObjectLabel=1
   GroupName=BASE_RING   ObjectType=Joint   ObjectLabel=2
   GroupName=BASE_RING   ObjectType=Joint   ObjectLabel=3
   GroupName=BASE_RING   ObjectType=Joint   ObjectLabel=4
   GroupName=BASE_RING   ObjectType=Joint   ObjectLabel=5
   GroupName=BASE_RING   ObjectType=Joint   ObjectLabel=6
   GroupName=BASE_RING   ObjectType=Joint   ObjectLabel=7
   GroupName=BASE_RING   ObjectType=Joint   ObjectLabel=8
   GroupName=BASE_RING   ObjectType=Joint   ObjectLabel=9
   GroupName=BASE_RING   ObjectType=Joint   ObjectLabel=10
   GroupName=BASE_RING   ObjectType=Joint   ObjectLabel=11
   GroupName=BASE_RING   ObjectType=Joint   ObjectLabel=12
   GroupName=BASE_RING   ObjectType=Joint   ObjectLabel=13
   GroupName=BASE_RING   ObjectType=Joint   ObjectLabel=14
   GroupName=BASE_RING   ObjectType=Joint   ObjectLabel=15
   GroupName=BASE_RING   ObjectType=Joint   ObjectLabel=16
   GroupName=BASE_RING   ObjectType=Joint   ObjectLabel=17
   GroupName=BASE_RING   ObjectType=Joint   ObjectLabel=18
   GroupName=BASE_RING   ObjectType=Joint   ObjectLabel=19
   GroupName=BASE_RING   ObjectType=Joint   ObjectLabel=20
# ... 16 like lines cut
   GroupName=TOP_RING   ObjectType=Joint   ObjectLabel=721
   GroupName=TOP_RING   ObjectType=Joint   ObjectLabel=722
   GroupName=TOP_RING   ObjectType=Joint   ObjectLabel=723
   GroupName=TOP_RING   ObjectType=Joint   ObjectLabel=724
   GroupName=TOP_RING   ObjectType=Joint   ObjectLabel=725
   GroupName=TOP_RING   ObjectType=Joint   ObjectLabel=726
   GroupName=TOP_RING   ObjectType=Joint   ObjectLabel=727
   GroupName=TOP_RING   ObjectType=Joint   ObjectLabel=728
   GroupName=TOP_RING   ObjectType=Joint   ObjectLabel=729
   GroupName=TOP_RING   ObjectType=Joint   ObjectLabel=730
   GroupName=TOP_RING   ObjectType=Joint   ObjectLabel=731
   GroupName=TOP_RING   ObjectType=Joint   ObjectLabel=732
   GroupName=TOP_RING   ObjectType=Joint   ObjectLabel=733
   GroupName=TOP_RING   ObjectType=Joint   ObjectLabel=734
   GroupName=TOP_RING   ObjectType=Joint   ObjectLabel=735
   GroupName=TOP_RING   ObjectType=Joint   ObjectLabel=736
   GroupName=TOP_RING   ObjectType=Joint   ObjectLabel=737
   GroupName=TOP_RING   ObjectType=Joint   ObjectLabel=738
   GroupName=TOP_RING   ObjectType=Joint   ObjectLabel=739
   GroupName=TOP_RING   ObjectType=Joint   ObjectLabel=740
# ... 16 like lines cut
   GroupName=BASEPLATE   ObjectType=Area   ObjectLabel=721
   GroupName=BASEPLATE   ObjectType=Area   ObjectLabel=722
   GroupName=BASEPLATE   ObjectType=Area   ObjectLabel=723
   GroupName=BASEPLATE   ObjectType=Area   ObjectLabel=724
   GroupName=BASEPLATE   ObjectType=Area   ObjectLabel=725
   GroupName=BASEPLATE   ObjectType=Area   ObjectLabel=726
   GroupName=BASEPLATE   ObjectType=Area   ObjectLabel=727
   GroupName=BASEPLATE   ObjectType=Area   ObjectLabel=728
   GroupName=BASEPLATE   ObjectType=Area   ObjectLabel=729
   GroupName=BASEPLATE   ObjectType=Area   ObjectLabel=730
   GroupName=BASEPLATE   ObjectType=Area   ObjectLabel=731
   GroupName=BASEPLATE   ObjectType=Area   ObjectLabel=732
   GroupName=BASEPLATE   ObjectType=Area   ObjectLabel=733
   GroupName=BASEPLATE   ObjectType=Area   ObjectLabel=734
   GroupName=BASEPLATE   ObjectType=Area   ObjectLabel=735
   GroupName=BASEPLATE   ObjectType=Area   ObjectLabel=736
   GroupName=BASEPLATE   ObjectType=Area   ObjectLabel=737
   GroupName=BASEPLATE   ObjectType=Area   ObjectLabel=738
   GroupName=BASEPLATE   ObjectType=Area   ObjectLabel=739
   GroupName=BASEPLATE   ObjectType=Area   ObjectLabel=740
# ... 196 like lines cut
   GroupName=ROOF   ObjectType=Area   ObjectLabel=937
   GroupName=ROOF   ObjectType=Area   ObjectLabel=938
   GroupName=ROOF   ObjectType=Area   ObjectLabel=939
   GroupName=ROOF   ObjectType=Area   ObjectLabel=940
   GroupName=ROOF   ObjectType=Area   ObjectLabel=941
   GroupName=ROOF   ObjectType=Area   ObjectLabel=942
   GroupName=ROOF   ObjectType=Area   ObjectLabel=943
   GroupName=ROOF   ObjectType=Area   ObjectLabel=944
   GroupName=ROOF   ObjectType=Area   ObjectLabel=945
   GroupName=ROOF   ObjectType=Area   ObjectLabel=946
   GroupName=ROOF   ObjectType=Area   ObjectLabel=947
   GroupName=ROOF   ObjectType=Area   ObjectLabel=948
   GroupName=ROOF   ObjectType=Area   ObjectLabel=949
   GroupName=ROOF   ObjectType=Area   ObjectLabel=950
   GroupName=ROOF   ObjectType=Area   ObjectLabel=951
   GroupName=ROOF   ObjectType=Area   ObjectLabel=952
   GroupName=ROOF   ObjectType=Area   ObjectLabel=953
   GroupName=ROOF   ObjectType=Area   ObjectLabel=954
   GroupName=ROOF   ObjectType=Area   ObjectLabel=955
   GroupName=ROOF   ObjectType=Area   ObjectLabel=956
# ... 196 like lines cut
   GroupName=ROOF_RING   ObjectType=Frame   ObjectLabel=1
   GroupName=ROOF_RING   ObjectType=Frame   ObjectLabel=2
   GroupName=ROOF_RING   ObjectType=Frame   ObjectLabel=3
   GroupName=ROOF_RING   ObjectType=Frame   ObjectLabel=4
   GroupName=ROOF_RING   ObjectType=Frame   ObjectLabel=5
   GroupName=ROOF_RING   ObjectType=Frame   ObjectLabel=6
   GroupName=ROOF_RING   ObjectType=Frame   ObjectLabel=7
   GroupName=ROOF_RING   ObjectType=Frame   ObjectLabel=8
   GroupName=ROOF_RING   ObjectType=Frame   ObjectLabel=9
   GroupName=ROOF_RING   ObjectType=Frame   ObjectLabel=10
   GroupName=ROOF_RING   ObjectType=Frame   ObjectLabel=11
   GroupName=ROOF_RING   ObjectType=Frame   ObjectLabel=12
   GroupName=ROOF_RING   ObjectType=Frame   ObjectLabel=13
   GroupName=ROOF_RING   ObjectType=Frame   ObjectLabel=14
   GroupName=ROOF_RING   ObjectType=Frame   ObjectLabel=15
   GroupName=ROOF_RING   ObjectType=Frame   ObjectLabel=16
   GroupName=ROOF_RING   ObjectType=Frame   ObjectLabel=17
   GroupName=ROOF_RING   ObjectType=Frame   ObjectLabel=18
   GroupName=ROOF_RING   ObjectType=Frame   ObjectLabel=19
   GroupName=ROOF_RING   ObjectType=Frame   ObjectLabel=20
# ... 16 like lines cut
   GroupName=GROUND   ObjectType=Joint   ObjectLabel=1119
   GroupName=GROUND   ObjectType=Joint   ObjectLabel=1120
   GroupName=GROUND   ObjectType=Joint   ObjectLabel=1121
   GroupName=GROUND   ObjectType=Joint   ObjectLabel=1122
   GroupName=GROUND   ObjectType=Joint   ObjectLabel=1123
   GroupName=GROUND   ObjectType=Joint   ObjectLabel=1124
   GroupName=GROUND   ObjectType=Joint   ObjectLabel=1125
   GroupName=GROUND   ObjectType=Joint   ObjectLabel=1126
   GroupName=GROUND   ObjectType=Joint   ObjectLabel=1127
   GroupName=GROUND   ObjectType=Joint   ObjectLabel=1128
   GroupName=GROUND   ObjectType=Joint   ObjectLabel=1129
   GroupName=GROUND   ObjectType=Joint   ObjectLabel=1130
   GroupName=GROUND   ObjectType=Joint   ObjectLabel=1131
   GroupName=GROUND   ObjectType=Joint   ObjectLabel=1132
   GroupName=GROUND   ObjectType=Joint   ObjectLabel=1133
   GroupName=GROUND   ObjectType=Joint   ObjectLabel=1134
   GroupName=GROUND   ObjectType=Joint   ObjectLabel=1135
   GroupName=GROUND   ObjectType=Joint   ObjectLabel=1136
   GroupName=GROUND   ObjectType=Joint   ObjectLabel=1137
   GroupName=GROUND   ObjectType=Joint   ObjectLabel=1138
# ... 161 like lines cut
   GroupName=RINGWALL   ObjectType=Frame   ObjectLabel=37
   GroupName=RINGWALL   ObjectType=Frame   ObjectLabel=38
   GroupName=RINGWALL   ObjectType=Frame   ObjectLabel=39
   GroupName=RINGWALL   ObjectType=Frame   ObjectLabel=40
   GroupName=RINGWALL   ObjectType=Frame   ObjectLabel=41
   GroupName=RINGWALL   ObjectType=Frame   ObjectLabel=42
   GroupName=RINGWALL   ObjectType=Frame   ObjectLabel=43
   GroupName=RINGWALL   ObjectType=Frame   ObjectLabel=44
   GroupName=RINGWALL   ObjectType=Frame   ObjectLabel=45
   GroupName=RINGWALL   ObjectType=Frame   ObjectLabel=46
   GroupName=RINGWALL   ObjectType=Frame   ObjectLabel=47
   GroupName=RINGWALL   ObjectType=Frame   ObjectLabel=48
   GroupName=RINGWALL   ObjectType=Frame   ObjectLabel=49
   GroupName=RINGWALL   ObjectType=Frame   ObjectLabel=50
   GroupName=RINGWALL   ObjectType=Frame   ObjectLabel=51
   GroupName=RINGWALL   ObjectType=Frame   ObjectLabel=52
   GroupName=RINGWALL   ObjectType=Frame   ObjectLabel=53
   GroupName=RINGWALL   ObjectType=Frame   ObjectLabel=54
   GroupName=RINGWALL   ObjectType=Frame   ObjectLabel=55
   GroupName=RINGWALL   ObjectType=Frame   ObjectLabel=56
# ... 16 like lines cut
   GroupName=RINGWALL_TOP   ObjectType=Joint   ObjectLabel=1300
   GroupName=RINGWALL_TOP   ObjectType=Joint   ObjectLabel=1301
   GroupName=RINGWALL_TOP   ObjectType=Joint   ObjectLabel=1302
   GroupName=RINGWALL_TOP   ObjectType=Joint   ObjectLabel=1303
   GroupName=RINGWALL_TOP   ObjectType=Joint   ObjectLabel=1304
   GroupName=RINGWALL_TOP   ObjectType=Joint   ObjectLabel=1305
   GroupName=RINGWALL_TOP   ObjectType=Joint   ObjectLabel=1306
   GroupName=RINGWALL_TOP   ObjectType=Joint   ObjectLabel=1307
   GroupName=RINGWALL_TOP   ObjectType=Joint   ObjectLabel=1308
   GroupName=RINGWALL_TOP   ObjectType=Joint   ObjectLabel=1309
   GroupName=RINGWALL_TOP   ObjectType=Joint   ObjectLabel=1310
   GroupName=RINGWALL_TOP   ObjectType=Joint   ObjectLabel=1311
   GroupName=RINGWALL_TOP   ObjectType=Joint   ObjectLabel=1312
   GroupName=RINGWALL_TOP   ObjectType=Joint   ObjectLabel=1313
   GroupName=RINGWALL_TOP   ObjectType=Joint   ObjectLabel=1314
   GroupName=RINGWALL_TOP   ObjectType=Joint   ObjectLabel=1315
   GroupName=RINGWALL_TOP   ObjectType=Joint   ObjectLabel=1316
   GroupName=RINGWALL_TOP   ObjectType=Joint   ObjectLabel=1317
   GroupName=RINGWALL_TOP   ObjectType=Joint   ObjectLabel=1318
   GroupName=RINGWALL_TOP   ObjectType=Joint   ObjectLabel=1319
# ... 16 like lines cut
   GroupName=RINGWALL_GROUND   ObjectType=Joint   ObjectLabel=1336
   GroupName=RINGWALL_GROUND   ObjectType=Joint   ObjectLabel=1337
   GroupName=RINGWALL_GROUND   ObjectType=Joint   ObjectLabel=1338
   GroupName=RINGWALL_GROUND   ObjectType=Joint   ObjectLabel=1339
   GroupName=RINGWALL_GROUND   ObjectType=Joint   ObjectLabel=1340
   GroupName=RINGWALL_GROUND   ObjectType=Joint   ObjectLabel=1341
   GroupName=RINGWALL_GROUND   ObjectType=Joint   ObjectLabel=1342
   GroupName=RINGWALL_GROUND   ObjectType=Joint   ObjectLabel=1343
   GroupName=RINGWALL_GROUND   ObjectType=Joint   ObjectLabel=1344
   GroupName=RINGWALL_GROUND   ObjectType=Joint   ObjectLabel=1345
   GroupName=RINGWALL_GROUND   ObjectType=Joint   ObjectLabel=1346
   GroupName=RINGWALL_GROUND   ObjectType=Joint   ObjectLabel=1347
   GroupName=RINGWALL_GROUND   ObjectType=Joint   ObjectLabel=1348
   GroupName=RINGWALL_GROUND   ObjectType=Joint   ObjectLabel=1349
   GroupName=RINGWALL_GROUND   ObjectType=Joint   ObjectLabel=1350
   GroupName=RINGWALL_GROUND   ObjectType=Joint   ObjectLabel=1351
   GroupName=RINGWALL_GROUND   ObjectType=Joint   ObjectLabel=1352
   GroupName=RINGWALL_GROUND   ObjectType=Joint   ObjectLabel=1353
   GroupName=RINGWALL_GROUND   ObjectType=Joint   ObjectLabel=1354
   GroupName=RINGWALL_GROUND   ObjectType=Joint   ObjectLabel=1355
# ... 16 like lines cut
   GroupName=DENT_01   ObjectType=Area   ObjectLabel=289
   GroupName=DENT_01   ObjectType=Area   ObjectLabel=324
   GroupName=DENT_01   ObjectType=Area   ObjectLabel=325
   GroupName=DENT_01   ObjectType=Area   ObjectLabel=360
   GroupName=DENT_01   ObjectType=Area   ObjectLabel=361
   GroupName=DENT_01   ObjectType=Area   ObjectLabel=396
   GroupName=DENT_01   ObjectType=Area   ObjectLabel=397
   GroupName=DENT_01   ObjectType=Area   ObjectLabel=432

TABLE:  "JOINT RESTRAINT ASSIGNMENTS"
   Joint=1   U1=Yes   U2=No   U3=No   R1=No   R2=No   R3=No
   Joint=2   U1=Yes   U2=No   U3=No   R1=No   R2=No   R3=No
   Joint=3   U1=Yes   U2=No   U3=No   R1=No   R2=No   R3=No
   Joint=4   U1=Yes   U2=No   U3=No   R1=No   R2=No   R3=No
   Joint=5   U1=Yes   U2=No   U3=No   R1=No   R2=No   R3=No
   Joint=6   U1=Yes   U2=No   U3=No   R1=No   R2=No   R3=No
   Joint=7   U1=Yes   U2=No   U3=No   R1=No   R2=No   R3=No
   Joint=8   U1=Yes   U2=No   U3=No   R1=No   R2=No   R3=No
   Joint=9   U1=Yes   U2=No   U3=No   R1=No   R2=No   R3=No
   Joint=10   U1=Yes   U2=No   U3=No   R1=No   R2=No   R3=No
   Joint=11   U1=Yes   U2=No   U3=No   R1=No   R2=No   R3=No
   Joint=12   U1=Yes   U2=No   U3=No   R1=No   R2=No   R3=No
   Joint=13   U1=Yes   U2=No   U3=No   R1=No   R2=No   R3=No
   Joint=14   U1=Yes   U2=No   U3=No   R1=No   R2=No   R3=No
   Joint=15   U1=Yes   U2=No   U3=No   R1=No   R2=No   R3=No
   Joint=16   U1=Yes   U2=No   U3=No   R1=No   R2=No   R3=No
   Joint=17   U1=Yes   U2=No   U3=No   R1=No   R2=No   R3=No
   Joint=18   U1=Yes   U2=No   U3=No   R1=No   R2=No   R3=No
   Joint=19   U1=Yes   U2=No   U3=No   R1=No   R2=No   R3=No
   Joint=20   U1=Yes   U2=No   U3=No   R1=No   R2=No   R3=No
# ... 16 like lines cut
   Joint=1119   U1=Yes   U2=Yes   U3=Yes   R1=Yes   R2=Yes   R3=Yes
   Joint=1120   U1=Yes   U2=Yes   U3=Yes   R1=Yes   R2=Yes   R3=Yes
   Joint=1121   U1=Yes   U2=Yes   U3=Yes   R1=Yes   R2=Yes   R3=Yes
   Joint=1122   U1=Yes   U2=Yes   U3=Yes   R1=Yes   R2=Yes   R3=Yes
   Joint=1123   U1=Yes   U2=Yes   U3=Yes   R1=Yes   R2=Yes   R3=Yes
   Joint=1124   U1=Yes   U2=Yes   U3=Yes   R1=Yes   R2=Yes   R3=Yes
   Joint=1125   U1=Yes   U2=Yes   U3=Yes   R1=Yes   R2=Yes   R3=Yes
   Joint=1126   U1=Yes   U2=Yes   U3=Yes   R1=Yes   R2=Yes   R3=Yes
   Joint=1127   U1=Yes   U2=Yes   U3=Yes   R1=Yes   R2=Yes   R3=Yes
   Joint=1128   U1=Yes   U2=Yes   U3=Yes   R1=Yes   R2=Yes   R3=Yes
   Joint=1129   U1=Yes   U2=Yes   U3=Yes   R1=Yes   R2=Yes   R3=Yes
   Joint=1130   U1=Yes   U2=Yes   U3=Yes   R1=Yes   R2=Yes   R3=Yes
   Joint=1131   U1=Yes   U2=Yes   U3=Yes   R1=Yes   R2=Yes   R3=Yes
   Joint=1132   U1=Yes   U2=Yes   U3=Yes   R1=Yes   R2=Yes   R3=Yes
   Joint=1133   U1=Yes   U2=Yes   U3=Yes   R1=Yes   R2=Yes   R3=Yes
   Joint=1134   U1=Yes   U2=Yes   U3=Yes   R1=Yes   R2=Yes   R3=Yes
   Joint=1135   U1=Yes   U2=Yes   U3=Yes   R1=Yes   R2=Yes   R3=Yes
   Joint=1136   U1=Yes   U2=Yes   U3=Yes   R1=Yes   R2=Yes   R3=Yes
   Joint=1137   U1=Yes   U2=Yes   U3=Yes   R1=Yes   R2=Yes   R3=Yes
   Joint=1138   U1=Yes   U2=Yes   U3=Yes   R1=Yes   R2=Yes   R3=Yes
# ... 197 like lines cut
   Joint=1300   U1=Yes   U2=No   U3=No   R1=No   R2=No   R3=No
   Joint=1301   U1=Yes   U2=No   U3=No   R1=No   R2=No   R3=No
   Joint=1302   U1=Yes   U2=No   U3=No   R1=No   R2=No   R3=No
   Joint=1303   U1=Yes   U2=No   U3=No   R1=No   R2=No   R3=No
   Joint=1304   U1=Yes   U2=No   U3=No   R1=No   R2=No   R3=No
   Joint=1305   U1=Yes   U2=No   U3=No   R1=No   R2=No   R3=No
   Joint=1306   U1=Yes   U2=No   U3=No   R1=No   R2=No   R3=No
   Joint=1307   U1=Yes   U2=No   U3=No   R1=No   R2=No   R3=No
   Joint=1308   U1=Yes   U2=No   U3=No   R1=No   R2=No   R3=No
   Joint=1309   U1=Yes   U2=No   U3=No   R1=No   R2=No   R3=No
   Joint=1310   U1=Yes   U2=No   U3=No   R1=No   R2=No   R3=No
   Joint=1311   U1=Yes   U2=No   U3=No   R1=No   R2=No   R3=No
   Joint=1312   U1=Yes   U2=No   U3=No   R1=No   R2=No   R3=No
   Joint=1313   U1=Yes   U2=No   U3=No   R1=No   R2=No   R3=No
   Joint=1314   U1=Yes   U2=No   U3=No   R1=No   R2=No   R3=No
   Joint=1315   U1=Yes   U2=No   U3=No   R1=No   R2=No   R3=No
   Joint=1316   U1=Yes   U2=No   U3=No   R1=No   R2=No   R3=No
   Joint=1317   U1=Yes   U2=No   U3=No   R1=No   R2=No   R3=No
   Joint=1318   U1=Yes   U2=No   U3=No   R1=No   R2=No   R3=No
   Joint=1319   U1=Yes   U2=No   U3=No   R1=No   R2=No   R3=No
# ... 16 like lines cut

TABLE:  "JOINT LOCAL AXES ASSIGNMENTS 1 - TYPICAL"
   Joint=1   AngleA=-90   AngleB=0   AngleC=0
   Joint=2   AngleA=-80   AngleB=0   AngleC=0
   Joint=3   AngleA=-70   AngleB=0   AngleC=0
   Joint=4   AngleA=-60   AngleB=0   AngleC=0
   Joint=5   AngleA=-50   AngleB=0   AngleC=0
   Joint=6   AngleA=-40   AngleB=0   AngleC=0
   Joint=7   AngleA=-30   AngleB=0   AngleC=0
   Joint=8   AngleA=-20   AngleB=0   AngleC=0
   Joint=9   AngleA=-10   AngleB=0   AngleC=0
   Joint=10   AngleA=0   AngleB=0   AngleC=0
   Joint=11   AngleA=10   AngleB=0   AngleC=0
   Joint=12   AngleA=20   AngleB=0   AngleC=0
   Joint=13   AngleA=30   AngleB=0   AngleC=0
   Joint=14   AngleA=40   AngleB=0   AngleC=0
   Joint=15   AngleA=50   AngleB=0   AngleC=0
   Joint=16   AngleA=60   AngleB=0   AngleC=0
   Joint=17   AngleA=70   AngleB=0   AngleC=0
   Joint=18   AngleA=80   AngleB=0   AngleC=0
   Joint=19   AngleA=90   AngleB=0   AngleC=0
   Joint=20   AngleA=100   AngleB=0   AngleC=0
# ... 52 like lines cut

TABLE:  "LOAD PATTERN DEFINITIONS"
   LoadPat=DEAD   DesignType=Dead   SelfWtMult=1
   LoadPat=HYDRO   DesignType=Live   SelfWtMult=0
   LoadPat=SETTLE   DesignType=Other   SelfWtMult=0

TABLE:  "JOINT PATTERN DEFINITIONS"
   Pattern=HYDRO

TABLE:  "JOINT PATTERN ASSIGNMENTS"
   Joint=1   Pattern=HYDRO   Value=2.496
   Joint=2   Pattern=HYDRO   Value=2.496
   Joint=3   Pattern=HYDRO   Value=2.496
   Joint=4   Pattern=HYDRO   Value=2.496
   Joint=5   Pattern=HYDRO   Value=2.496
   Joint=6   Pattern=HYDRO   Value=2.496
   Joint=7   Pattern=HYDRO   Value=2.496
   Joint=8   Pattern=HYDRO   Value=2.496
   Joint=9   Pattern=HYDRO   Value=2.496
   Joint=10   Pattern=HYDRO   Value=2.496
   Joint=11   Pattern=HYDRO   Value=2.496
   Joint=12   Pattern=HYDRO   Value=2.496
   Joint=13   Pattern=HYDRO   Value=2.496
   Joint=14   Pattern=HYDRO   Value=2.496
   Joint=15   Pattern=HYDRO   Value=2.496
   Joint=16   Pattern=HYDRO   Value=2.496
   Joint=17   Pattern=HYDRO   Value=2.496
   Joint=18   Pattern=HYDRO   Value=2.496
   Joint=19   Pattern=HYDRO   Value=2.496
   Joint=20   Pattern=HYDRO   Value=2.496
# ... 1351 like lines cut

TABLE:  "AREA LOADS - SURFACE PRESSURE"
   Area=1   LoadPat=HYDRO   Face=Bottom   Pressure=2.4336
   Area=2   LoadPat=HYDRO   Face=Bottom   Pressure=2.4336
   Area=3   LoadPat=HYDRO   Face=Bottom   Pressure=2.4336
   Area=4   LoadPat=HYDRO   Face=Bottom   Pressure=2.4336
   Area=5   LoadPat=HYDRO   Face=Bottom   Pressure=2.4336
   Area=6   LoadPat=HYDRO   Face=Bottom   Pressure=2.4336
   Area=7   LoadPat=HYDRO   Face=Bottom   Pressure=2.4336
   Area=8   LoadPat=HYDRO   Face=Bottom   Pressure=2.4336
   Area=9   LoadPat=HYDRO   Face=Bottom   Pressure=2.4336
   Area=10   LoadPat=HYDRO   Face=Bottom   Pressure=2.4336
   Area=11   LoadPat=HYDRO   Face=Bottom   Pressure=2.4336
   Area=12   LoadPat=HYDRO   Face=Bottom   Pressure=2.4336
   Area=13   LoadPat=HYDRO   Face=Bottom   Pressure=2.4336
   Area=14   LoadPat=HYDRO   Face=Bottom   Pressure=2.4336
   Area=15   LoadPat=HYDRO   Face=Bottom   Pressure=2.4336
   Area=16   LoadPat=HYDRO   Face=Bottom   Pressure=2.4336
   Area=17   LoadPat=HYDRO   Face=Bottom   Pressure=2.4336
   Area=18   LoadPat=HYDRO   Face=Bottom   Pressure=2.4336
   Area=19   LoadPat=HYDRO   Face=Bottom   Pressure=2.4336
   Area=20   LoadPat=HYDRO   Face=Bottom   Pressure=2.4336
# ... 700 like lines cut
   Area=721   LoadPat=HYDRO   Face=Top   Pressure=2.496
   Area=722   LoadPat=HYDRO   Face=Top   Pressure=2.496
   Area=723   LoadPat=HYDRO   Face=Top   Pressure=2.496
   Area=724   LoadPat=HYDRO   Face=Top   Pressure=2.496
   Area=725   LoadPat=HYDRO   Face=Top   Pressure=2.496
   Area=726   LoadPat=HYDRO   Face=Top   Pressure=2.496
   Area=727   LoadPat=HYDRO   Face=Top   Pressure=2.496
   Area=728   LoadPat=HYDRO   Face=Top   Pressure=2.496
   Area=729   LoadPat=HYDRO   Face=Top   Pressure=2.496
   Area=730   LoadPat=HYDRO   Face=Top   Pressure=2.496
   Area=731   LoadPat=HYDRO   Face=Top   Pressure=2.496
   Area=732   LoadPat=HYDRO   Face=Top   Pressure=2.496
   Area=733   LoadPat=HYDRO   Face=Top   Pressure=2.496
   Area=734   LoadPat=HYDRO   Face=Top   Pressure=2.496
   Area=735   LoadPat=HYDRO   Face=Top   Pressure=2.496
   Area=736   LoadPat=HYDRO   Face=Top   Pressure=2.496
   Area=737   LoadPat=HYDRO   Face=Top   Pressure=2.496
   Area=738   LoadPat=HYDRO   Face=Top   Pressure=2.496
   Area=739   LoadPat=HYDRO   Face=Top   Pressure=2.496
   Area=740   LoadPat=HYDRO   Face=Top   Pressure=2.496
# ... 196 like lines cut

TABLE:  "JOINT LOADS - GROUND DISPLACEMENT"
   Joint=1119   LoadPat=SETTLE   CoordSys=GLOBAL   U1=0   U2=0   U3=-0.25   R1=0   R2=0   R3=0
   Joint=1120   LoadPat=SETTLE   CoordSys=GLOBAL   U1=0   U2=0   U3=-0.25   R1=0   R2=0   R3=0
   Joint=1121   LoadPat=SETTLE   CoordSys=GLOBAL   U1=0   U2=0   U3=-0.244764984   R1=0   R2=0   R3=0
   Joint=1122   LoadPat=SETTLE   CoordSys=GLOBAL   U1=0   U2=0   U3=-0.229691358   R1=0   R2=0   R3=0
   Joint=1123   LoadPat=SETTLE   CoordSys=GLOBAL   U1=0   U2=0   U3=-0.206597222   R1=0   R2=0   R3=0
   Joint=1124   LoadPat=SETTLE   CoordSys=GLOBAL   U1=0   U2=0   U3=-0.178268071   R1=0   R2=0   R3=0
   Joint=1125   LoadPat=SETTLE   CoordSys=GLOBAL   U1=0   U2=0   U3=-0.148120818   R1=0   R2=0   R3=0
   Joint=1126   LoadPat=SETTLE   CoordSys=GLOBAL   U1=0   U2=0   U3=-0.119791667   R1=0   R2=0   R3=0
   Joint=1127   LoadPat=SETTLE   CoordSys=GLOBAL   U1=0   U2=0   U3=-0.096697531   R1=0   R2=0   R3=0
   Joint=1128   LoadPat=SETTLE   CoordSys=GLOBAL   U1=0   U2=0   U3=-0.0816239044   R1=0   R2=0   R3=0
   Joint=1129   LoadPat=SETTLE   CoordSys=GLOBAL   U1=0   U2=0   U3=-0.0763888889   R1=0   R2=0   R3=0
   Joint=1130   LoadPat=SETTLE   CoordSys=GLOBAL   U1=0   U2=0   U3=-0.0816239044   R1=0   R2=0   R3=0
   Joint=1131   LoadPat=SETTLE   CoordSys=GLOBAL   U1=0   U2=0   U3=-0.096697531   R1=0   R2=0   R3=0
   Joint=1132   LoadPat=SETTLE   CoordSys=GLOBAL   U1=0   U2=0   U3=-0.119791667   R1=0   R2=0   R3=0
   Joint=1133   LoadPat=SETTLE   CoordSys=GLOBAL   U1=0   U2=0   U3=-0.148120818   R1=0   R2=0   R3=0
   Joint=1134   LoadPat=SETTLE   CoordSys=GLOBAL   U1=0   U2=0   U3=-0.178268071   R1=0   R2=0   R3=0
   Joint=1135   LoadPat=SETTLE   CoordSys=GLOBAL   U1=0   U2=0   U3=-0.206597222   R1=0   R2=0   R3=0
   Joint=1136   LoadPat=SETTLE   CoordSys=GLOBAL   U1=0   U2=0   U3=-0.229691358   R1=0   R2=0   R3=0
   Joint=1137   LoadPat=SETTLE   CoordSys=GLOBAL   U1=0   U2=0   U3=-0.244764984   R1=0   R2=0   R3=0
   Joint=1138   LoadPat=SETTLE   CoordSys=GLOBAL   U1=0   U2=0   U3=-0.25   R1=0   R2=0   R3=0
# ... 59 like lines cut

TABLE:  "LOAD CASE DEFINITIONS"
   Case=DEAD   Type=LinStatic   InitialCond=Zero
   Case=HYDRO   Type=LinStatic   InitialCond=Zero
   Case=NL_DEAD   Type=NonStatic   InitialCond=Zero
   Case=NL_HYDRO   Type=NonStatic   InitialCond=NL_DEAD
   Case=NL_SETTLE   Type=NonStatic   InitialCond=NL_HYDRO

TABLE:  "CASE - STATIC 1 - LOAD ASSIGNMENTS"
   Case=DEAD   LoadType="Load pattern"   LoadName=DEAD   LoadSF=1
   Case=HYDRO   LoadType="Load pattern"   LoadName=HYDRO   LoadSF=1
   Case=NL_DEAD   LoadType="Load pattern"   LoadName=DEAD   LoadSF=1
   Case=NL_HYDRO   LoadType="Load pattern"   LoadName=HYDRO   LoadSF=1
   Case=NL_SETTLE   LoadType="Load pattern"   LoadName=SETTLE   LoadSF=1

TABLE:  "CASE - STATIC 2 - NONLINEAR LOAD APPLICATION"
   Case=NL_DEAD   LoadApp="Full Load"   MonitorDOF=U3   MonitorJt=1
   Case=NL_HYDRO   LoadApp="Full Load"   MonitorDOF=U3   MonitorJt=1
   Case=NL_SETTLE   LoadApp="Full Load"   MonitorDOF=U3   MonitorJt=1

END TABLE DATA
