File generated by build_tank.py (SapViewer)

TABLE:  "PROGRAM CONTROL"
   ProgramName=SAP2000   Version=24.0.0   CurrUnits="Kip, ft, F"   MergeTol=0.001

TABLE:  "MATERIAL PROPERTIES 01 - GENERAL"
   Material=A36   Type=Steel   SymType=Isotropic   TempDepend=No   Color=Cyan

TABLE:  "MATERIAL PROPERTIES 02 - BASIC MECHANICAL PROPERTIES"
   Material=A36   UnitWeight=0.49   UnitMass=0.0152296886   E1=4176000   G12=1606153.85   U12=0.3   A1=6.5e-06

TABLE:  "AREA SECTION PROPERTIES"
   Section=TANKWALL   Material=A36   MatAngle=0   AreaType=Shell   Type=Shell-Thin   Thickness=0.0208333   BendThick=0.0208333   Color=Gray8Dark

TABLE:  "JOINT COORDINATES"
   Joint=1   CoordSys=GLOBAL   CoordType=Cartesian   XorR=34   Y=0   Z=0
   Joint=2   CoordSys=GLOBAL   CoordType=Cartesian   XorR=33.4834636   Y=5.90403804   Z=0
   Joint=3   CoordSys=GLOBAL   CoordType=Cartesian   XorR=31.9495491   Y=11.6286849   Z=0
   Joint=4   CoordSys=GLOBAL   CoordType=Cartesian   XorR=29.4448637   Y=17   Z=0
   Joint=5   CoordSys=GLOBAL   CoordType=Cartesian   XorR=26.0455111   Y=21.8547787   Z=0
   Joint=6   CoordSys=GLOBAL   CoordType=Cartesian   XorR=21.8547787   Y=26.0455111   Z=0
   Joint=7   CoordSys=GLOBAL   CoordType=Cartesian   XorR=17   Y=29.4448637   Z=0
   Joint=8   CoordSys=GLOBAL   CoordType=Cartesian   XorR=11.6286849   Y=31.9495491   Z=0
   Joint=9   CoordSys=GLOBAL   CoordType=Cartesian   XorR=5.90403804   Y=33.4834636   Z=0
   Joint=10   CoordSys=GLOBAL   CoordType=Cartesian   XorR=2.08189956e-15   Y=34   Z=0
   Joint=11   CoordSys=GLOBAL   CoordType=Cartesian   XorR=-5.90403804   Y=33.4834636   Z=0
   Joint=12   CoordSys=GLOBAL   CoordType=Cartesian   XorR=-11.6286849   Y=31.9495491   Z=0
   Joint=13   CoordSys=GLOBAL   CoordType=Cartesian   XorR=-17   Y=29.4448637   Z=0
   Joint=14   CoordSys=GLOBAL   CoordType=Cartesian   XorR=-21.8547787   Y=26.0455111   Z=0
   Joint=15   CoordSys=GLOBAL   CoordType=Cartesian   XorR=-26.0455111   Y=21.8547787   Z=0
   Joint=16   CoordSys=GLOBAL   CoordType=Cartesian   XorR=-29.4448637   Y=17   Z=0
   Joint=17   CoordSys=GLOBAL   CoordType=Cartesian   XorR=-31.9495491   Y=11.6286849   Z=0
   Joint=18   CoordSys=GLOBAL   CoordType=Cartesian   XorR=-33.4834636   Y=5.90403804   Z=0
   Joint=19   CoordSys=GLOBAL   CoordType=Cartesian   XorR=-34   Y=4.16379912e-15   Z=0
   Joint=20   CoordSys=GLOBAL   CoordType=Cartesian   XorR=-33.4834636   Y=-5.90403804   Z=0
# ... 736 like lines cut

TABLE:  "CONNECTIVITY - AREA"
   Area=1   NumJoints=4   Joint1=1   Joint2=2   Joint3=38   Joint4=37
   Area=2   NumJoints=4   Joint1=2   Joint2=3   Joint3=39   Joint4=38
   Area=3   NumJoints=4   Joint1=3   Joint2=4   Joint3=40   Joint4=39
   Area=4   NumJoints=4   Joint1=4   Joint2=5   Joint3=41   Joint4=40
   Area=5   NumJoints=4   Joint1=5   Joint2=6   Joint3=42   Joint4=41
   Area=6   NumJoints=4   Joint1=6   Joint2=7   Joint3=43   Joint4=42
   Area=7   NumJoints=4   Joint1=7   Joint2=8   Joint3=44   Joint4=43
   Area=8   NumJoints=4   Joint1=8   Joint2=9   Joint3=45   Joint4=44
   Area=9   NumJoints=4   Joint1=9   Joint2=10   Joint3=46   Joint4=45
   Area=10   NumJoints=4   Joint1=10   Joint2=11   Joint3=47   Joint4=46
   Area=11   NumJoints=4   Joint1=11   Joint2=12   Joint3=48   Joint4=47
   Area=12   NumJoints=4   Joint1=12   Joint2=13   Joint3=49   Joint4=48
   Area=13   NumJoints=4   Joint1=13   Joint2=14   Joint3=50   Joint4=49
   Area=14   NumJoints=4   Joint1=14   Joint2=15   Joint3=51   Joint4=50
   Area=15   NumJoints=4   Joint1=15   Joint2=16   Joint3=52   Joint4=51
   Area=16   NumJoints=4   Joint1=16   Joint2=17   Joint3=53   Joint4=52
   Area=17   NumJoints=4   Joint1=17   Joint2=18   Joint3=54   Joint4=53
   Area=18   NumJoints=4   Joint1=18   Joint2=19   Joint3=55   Joint4=54
   Area=19   NumJoints=4   Joint1=19   Joint2=20   Joint3=56   Joint4=55
   Area=20   NumJoints=4   Joint1=20   Joint2=21   Joint3=57   Joint4=56
# ... 700 like lines cut

TABLE:  "AREA SECTION ASSIGNMENTS"
   Area=1   Section=TANKWALL
   Area=2   Section=TANKWALL
   Area=3   Section=TANKWALL
   Area=4   Section=TANKWALL
   Area=5   Section=TANKWALL
   Area=6   Section=TANKWALL
   Area=7   Section=TANKWALL
   Area=8   Section=TANKWALL
   Area=9   Section=TANKWALL
   Area=10   Section=TANKWALL
   Area=11   Section=TANKWALL
   Area=12   Section=TANKWALL
   Area=13   Section=TANKWALL
   Area=14   Section=TANKWALL
   Area=15   Section=TANKWALL
   Area=16   Section=TANKWALL
   Area=17   Section=TANKWALL
   Area=18   Section=TANKWALL
   Area=19   Section=TANKWALL
   Area=20   Section=TANKWALL
# ... 700 like lines cut

TABLE:  "JOINT RESTRAINT ASSIGNMENTS"
   Joint=1   U1=Yes   U2=No   U3=Yes   R1=No   R2=No   R3=No
   Joint=2   U1=Yes   U2=No   U3=Yes   R1=No   R2=No   R3=No
   Joint=3   U1=Yes   U2=No   U3=Yes   R1=No   R2=No   R3=No
   Joint=4   U1=Yes   U2=No   U3=Yes   R1=No   R2=No   R3=No
   Joint=5   U1=Yes   U2=No   U3=Yes   R1=No   R2=No   R3=No
   Joint=6   U1=Yes   U2=No   U3=Yes   R1=No   R2=No   R3=No
   Joint=7   U1=Yes   U2=No   U3=Yes   R1=No   R2=No   R3=No
   Joint=8   U1=Yes   U2=No   U3=Yes   R1=No   R2=No   R3=No
   Joint=9   U1=Yes   U2=No   U3=Yes   R1=No   R2=No   R3=No
   Joint=10   U1=Yes   U2=No   U3=Yes   R1=No   R2=No   R3=No
   Joint=11   U1=Yes   U2=No   U3=Yes   R1=No   R2=No   R3=No
   Joint=12   U1=Yes   U2=No   U3=Yes   R1=No   R2=No   R3=No
   Joint=13   U1=Yes   U2=No   U3=Yes   R1=No   R2=No   R3=No
   Joint=14   U1=Yes   U2=No   U3=Yes   R1=No   R2=No   R3=No
   Joint=15   U1=Yes   U2=No   U3=Yes   R1=No   R2=No   R3=No
   Joint=16   U1=Yes   U2=No   U3=Yes   R1=No   R2=No   R3=No
   Joint=17   U1=Yes   U2=No   U3=Yes   R1=No   R2=No   R3=No
   Joint=18   U1=Yes   U2=No   U3=Yes   R1=No   R2=No   R3=No
   Joint=19   U1=Yes   U2=No   U3=Yes   R1=No   R2=No   R3=No
   Joint=20   U1=Yes   U2=No   U3=Yes   R1=No   R2=No   R3=No
# ... 16 like lines cut

TABLE:  "JOINT LOCAL AXES ASSIGNMENTS 1 - TYPICAL"
   Joint=1   AngleA=-90   AngleB=0   AngleC=0
   Joint=2   AngleA=-80   AngleB=0   AngleC=0
   Joint=3   AngleA=-70   AngleB=0   AngleC=0
   Joint=4   AngleA=-60   AngleB=0   AngleC=0
   Joint=5   AngleA=-50   AngleB=0   AngleC=0
   Joint=6   AngleA=-40   AngleB=0   AngleC=0
   Joint=7   AngleA=-30   AngleB=0   AngleC=0
   Joint=8   AngleA=-20   AngleB=0   AngleC=0
   Joint=9   AngleA=-10   AngleB=0   AngleC=0
   Joint=10   AngleA=0   AngleB=0   AngleC=0
   Joint=11   AngleA=10   AngleB=0   AngleC=0
   Joint=12   AngleA=20   AngleB=0   AngleC=0
   Joint=13   AngleA=30   AngleB=0   AngleC=0
   Joint=14   AngleA=40   AngleB=0   AngleC=0
   Joint=15   AngleA=50   AngleB=0   AngleC=0
   Joint=16   AngleA=60   AngleB=0   AngleC=0
   Joint=17   AngleA=70   AngleB=0   AngleC=0
   Joint=18   AngleA=80   AngleB=0   AngleC=0
   Joint=19   AngleA=90   AngleB=0   AngleC=0
   Joint=20   AngleA=100   AngleB=0   AngleC=0
# ... 16 like lines cut

TABLE:  "LOAD PATTERN DEFINITIONS"
   LoadPat=DEAD   DesignType=Dead   SelfWtMult=1
   LoadPat=HYDRO   DesignType=Live   SelfWtMult=0

TABLE:  "JOINT PATTERN DEFINITIONS"
   Pattern=HYDRO

TABLE:  "JOINT PATTERN ASSIGNMENTS"
   Joint=1   Pattern=HYDRO   Value=1.9968
   Joint=2   Pattern=HYDRO   Value=1.9968
   Joint=3   Pattern=HYDRO   Value=1.9968
   Joint=4   Pattern=HYDRO   Value=1.9968
   Joint=5   Pattern=HYDRO   Value=1.9968
   Joint=6   Pattern=HYDRO   Value=1.9968
   Joint=7   Pattern=HYDRO   Value=1.9968
   Joint=8   Pattern=HYDRO   Value=1.9968
   Joint=9   Pattern=HYDRO   Value=1.9968
   Joint=10   Pattern=HYDRO   Value=1.9968
   Joint=11   Pattern=HYDRO   Value=1.9968
   Joint=12   Pattern=HYDRO   Value=1.9968
   Joint=13   Pattern=HYDRO   Value=1.9968
   Joint=14   Pattern=HYDRO   Value=1.9968
   Joint=15   Pattern=HYDRO   Value=1.9968
   Joint=16   Pattern=HYDRO   Value=1.9968
   Joint=17   Pattern=HYDRO   Value=1.9968
   Joint=18   Pattern=HYDRO   Value=1.9968
   Joint=19   Pattern=HYDRO   Value=1.9968
   Joint=20   Pattern=HYDRO   Value=1.9968
# ... 736 like lines cut

TABLE:  "AREA LOADS - SURFACE PRESSURE"
   Area=1   LoadPat=HYDRO   Face=Bottom   Pressure=1.94688
   Area=2   LoadPat=HYDRO   Face=Bottom   Pressure=1.94688
   Area=3   LoadPat=HYDRO   Face=Bottom   Pressure=1.94688
   Area=4   LoadPat=HYDRO   Face=Bottom   Pressure=1.94688
   Area=5   LoadPat=HYDRO   Face=Bottom   Pressure=1.94688
   Area=6   LoadPat=HYDRO   Face=Bottom   Pressure=1.94688
   Area=7   LoadPat=HYDRO   Face=Bottom   Pressure=1.94688
   Area=8   LoadPat=HYDRO   Face=Bottom   Pressure=1.94688
   Area=9   LoadPat=HYDRO   Face=Bottom   Pressure=1.94688
   Area=10   LoadPat=HYDRO   Face=Bottom   Pressure=1.94688
   Area=11   LoadPat=HYDRO   Face=Bottom   Pressure=1.94688
   Area=12   LoadPat=HYDRO   Face=Bottom   Pressure=1.94688
   Area=13   LoadPat=HYDRO   Face=Bottom   Pressure=1.94688
   Area=14   LoadPat=HYDRO   Face=Bottom   Pressure=1.94688
   Area=15   LoadPat=HYDRO   Face=Bottom   Pressure=1.94688
   Area=16   LoadPat=HYDRO   Face=Bottom   Pressure=1.94688
   Area=17   LoadPat=HYDRO   Face=Bottom   Pressure=1.94688
   Area=18   LoadPat=HYDRO   Face=Bottom   Pressure=1.94688
   Area=19   LoadPat=HYDRO   Face=Bottom   Pressure=1.94688
   Area=20   LoadPat=HYDRO   Face=Bottom   Pressure=1.94688
# ... 700 like lines cut

TABLE:  "LOAD CASE DEFINITIONS"
   Case=DEAD   Type=LinStatic   InitialCond=Zero
   Case=HYDRO   Type=LinStatic   InitialCond=Zero

TABLE:  "CASE - STATIC 1 - LOAD ASSIGNMENTS"
   Case=DEAD   LoadType="Load pattern"   LoadName=DEAD   LoadSF=1
   Case=HYDRO   LoadType="Load pattern"   LoadName=HYDRO   LoadSF=1

END TABLE DATA
